version 2
run VoIP-20ms_200B-2-20160923-14:08:13-14551
attr configname VoIP-20ms_200B
attr datetime 20160923-14:08:13
attr experiment VoIP-20ms_200B
attr inifile omnetpp.ini
attr iterationvars ""
attr iterationvars2 $repetition=2
attr measurement ""
attr network SymScenerio
attr processid 14551
attr repetition 2
attr replication #2
attr resultdir results
attr runnumber 2
attr seedset 2
param **.coreDebug false
param **.debug false
param *.**.nic.mac1609_4.bitrate 18Mbps
param *.**.nic.mac1609_4.txPower 20mW
param *.**.nic.mac1609_4.useServiceChannel true
param *.**.nic.phy80211p.analogueModels "xmldoc(\"config.xml\")"
param *.**.nic.phy80211p.decider "xmldoc(\"config.xml\")"
param *.**.nic.phy80211p.sensitivity -89dBm
param *.**.nic.phy80211p.thermalNoise -110dBm
param *.**.nic.phy80211p.usePropagationDelay true
param *.**.nic.phy80211p.useThermalNoise true
param *.annotations.draw false
param *.connectionManager.alpha 2.0
param *.connectionManager.carrierFrequency "5.890e9 Hz"
param *.connectionManager.pMax 20mW
param *.connectionManager.sat -89dBm
param *.connectionManager.sendDirect true
param *.manager.autoShutdown true
param *.manager.host "\"localhost\""
param *.manager.launchConfig "xmldoc(\"map.launchd.xml\")"
param *.manager.margin 25
param *.manager.moduleDisplayString "\"\""
param *.manager.moduleName "\"node\""
param *.manager.moduleType "\"symulacja.veins.nodes.Car\""
param *.manager.port 9999
param *.manager.updateInterval 0.1s
param *.node[*].appl.beaconInterval 1s
param *.node[*].appl.beaconPriority 3
param *.node[*].appl.dataOnSch false
param *.node[*].appl.dataPriority 2
param *.node[*].appl.debug false
param *.node[*].appl.maxOffset 0.005s
param *.node[*].appl.sendBeacons false
param *.node[*].appl.sendData true
param *.node[*].appl.sendVoIP true
param *.node[*].appl.voipInterval 0.020s
param *.node[*].appl.voipLengthBits 1600bit
param *.node[*].appl.voipOnSch true
param *.node[*].appl.voipPriority 3
param *.node[*].applType "\"Sym11p\""
param *.node[*].veinsmobility.x 0
param *.node[*].veinsmobility.y 0
param *.node[*].veinsmobility.z 1.895
param *.node[*].veinsmobilityType "\"symulacja.veins.modules.mobility.traci.TraCIMobility\""
param *.playgroundSizeX 9000m
param *.playgroundSizeY 9000m
param *.playgroundSizeZ 50m
param *.rsu[*].appl.beaconInterval 1s
param *.rsu[*].appl.beaconPriority 3
param *.rsu[*].appl.dataOnSch false
param *.rsu[*].appl.dataPriority 2
param *.rsu[*].appl.debug false
param *.rsu[*].appl.headerLength "256 bit"
param *.rsu[*].appl.maxOffset 0.005s
param *.rsu[*].appl.sendBeacons false
param *.rsu[*].appl.sendData false
param *.rsu[*].appl.sendVoIP false
param *.rsu[*].applType "\"SymRSU11p\""
param *.rsu[0].mobility.x 2160
param *.rsu[0].mobility.y 3100
param *.rsu[0].mobility.z 3
param *.world.use2D false
param *.world.useTorus false

vector 14  SymScenerio.rsu[0].nic.mac1609_4  "Interwały kanałów"  ETV
vector 23  SymScenerio.node[0].veinsmobility  posx  ETV
vector 24  SymScenerio.node[0].veinsmobility  posy  ETV
vector 22  SymScenerio.node[0].nic.mac1609_4  "Interwały kanałów"  ETV
vector 25  SymScenerio.node[0].veinsmobility  speed  ETV
vector 26  SymScenerio.node[0].veinsmobility  acceleration  ETV
vector 27  SymScenerio.node[0].veinsmobility  co2emission  ETV
vector 15  SymScenerio.node[0].appl  "TX Packets"  ETV
vector 16  SymScenerio.node[0].appl  "TX Total"  ETV
vector 17  SymScenerio.node[0].appl  Pakietyzacja  ETV
vector 5  SymScenerio.rsu[0].appl  nodeALL:vector  ETV
attr source  nodeALL
attr title  "Opoznienia ALL, vector"
vector 9  SymScenerio.rsu[0].appl  "RX Packet"  ETV
vector 0  SymScenerio.rsu[0].appl  node0:vector  ETV
attr source  node0
attr title  "Opoznienia node0, vector"
vector 36  SymScenerio.node[1].veinsmobility  posx  ETV
vector 37  SymScenerio.node[1].veinsmobility  posy  ETV
vector 35  SymScenerio.node[1].nic.mac1609_4  "Interwały kanałów"  ETV
vector 28  SymScenerio.node[1].appl  "TX Packets"  ETV
vector 29  SymScenerio.node[1].appl  "TX Total"  ETV
vector 30  SymScenerio.node[1].appl  Pakietyzacja  ETV
vector 1  SymScenerio.rsu[0].appl  node1:vector  ETV
attr source  node1
attr title  "Opoznienia node1, vector"
vector 38  SymScenerio.node[1].veinsmobility  speed  ETV
vector 39  SymScenerio.node[1].veinsmobility  acceleration  ETV
vector 40  SymScenerio.node[1].veinsmobility  co2emission  ETV
vector 49  SymScenerio.node[2].veinsmobility  posx  ETV
vector 50  SymScenerio.node[2].veinsmobility  posy  ETV
vector 48  SymScenerio.node[2].nic.mac1609_4  "Interwały kanałów"  ETV
vector 51  SymScenerio.node[2].veinsmobility  speed  ETV
vector 41  SymScenerio.node[2].appl  "TX Packets"  ETV
vector 42  SymScenerio.node[2].appl  "TX Total"  ETV
vector 43  SymScenerio.node[2].appl  Pakietyzacja  ETV
vector 2  SymScenerio.rsu[0].appl  node2:vector  ETV
attr source  node2
attr title  "Opoznienia node2, vector"
vector 52  SymScenerio.node[2].veinsmobility  acceleration  ETV
vector 53  SymScenerio.node[2].veinsmobility  co2emission  ETV
vector 62  SymScenerio.node[3].veinsmobility  posx  ETV
vector 63  SymScenerio.node[3].veinsmobility  posy  ETV
vector 61  SymScenerio.node[3].nic.mac1609_4  "Interwały kanałów"  ETV
vector 64  SymScenerio.node[3].veinsmobility  speed  ETV
vector 54  SymScenerio.node[3].appl  "TX Packets"  ETV
vector 55  SymScenerio.node[3].appl  "TX Total"  ETV
vector 56  SymScenerio.node[3].appl  Pakietyzacja  ETV
vector 3  SymScenerio.rsu[0].appl  node3:vector  ETV
attr source  node3
attr title  "Opoznienia node3, vector"
vector 65  SymScenerio.node[3].veinsmobility  acceleration  ETV
vector 66  SymScenerio.node[3].veinsmobility  co2emission  ETV
vector 75  SymScenerio.node[4].veinsmobility  posx  ETV
vector 76  SymScenerio.node[4].veinsmobility  posy  ETV
vector 74  SymScenerio.node[4].nic.mac1609_4  "Interwały kanałów"  ETV
vector 77  SymScenerio.node[4].veinsmobility  speed  ETV
vector 78  SymScenerio.node[4].veinsmobility  acceleration  ETV
vector 79  SymScenerio.node[4].veinsmobility  co2emission  ETV
vector 67  SymScenerio.node[4].appl  "TX Packets"  ETV
vector 68  SymScenerio.node[4].appl  "TX Total"  ETV
vector 69  SymScenerio.node[4].appl  Pakietyzacja  ETV
vector 4  SymScenerio.rsu[0].appl  node4:vector  ETV
attr source  node4
attr title  "Opoznienia node4, vector"
17	25	0.530183900781	1.002
17	28	0.550183900781	1.002
17	57	0.570183900781	1.002
17	72	0.590183900781	1.002
17	90	0.610183900781	1.002
17	92	0.630183900781	1.002
17	95	0.650183900781	1.002
17	137	0.670183900781	1.002
17	152	0.690183900781	1.002
17	170	0.710183900781	1.002
17	172	0.730183900781	1.002
17	175	0.750183900781	1.002
17	217	0.770183900781	1.002
17	232	0.790183900781	1.002
17	250	0.810183900781	1.002
17	252	0.830183900781	1.002
17	255	0.850183900781	1.002
17	297	0.870183900781	1.002
17	312	0.890183900781	1.002
17	330	0.910183900781	1.002
17	332	0.930183900781	1.002
17	335	0.950183900781	1.002
17	377	0.970183900781	1.002
17	392	0.990183900781	1.002
17	410	1.010183900781	1.002
17	412	1.030183900781	1.002
17	415	1.050183900781	1.002
17	457	1.070183900781	1.002
17	472	1.090183900781	1.002
17	490	1.110183900781	1.002
17	492	1.130183900781	1.002
17	495	1.150183900781	1.002
17	537	1.170183900781	1.002
17	552	1.190183900781	1.002
17	570	1.210183900781	1.002
17	572	1.230183900781	1.002
17	575	1.250183900781	1.002
17	617	1.270183900781	1.002
17	632	1.290183900781	1.002
17	650	1.310183900781	1.002
17	652	1.330183900781	1.002
17	655	1.350183900781	1.002
17	697	1.370183900781	1.002
17	712	1.390183900781	1.002
17	730	1.410183900781	1.002
17	732	1.430183900781	1.002
17	735	1.450183900781	1.002
17	777	1.470183900781	1.002
17	792	1.490183900781	1.002
17	810	1.510183900781	1.002
17	812	1.530183900781	1.002
17	815	1.550183900781	1.002
17	857	1.570183900781	1.002
17	872	1.590183900781	1.002
17	890	1.610183900781	1.002
17	892	1.630183900781	1.002
17	895	1.650183900781	1.002
17	937	1.670183900781	1.002
17	952	1.690183900781	1.002
17	970	1.710183900781	1.002
17	972	1.730183900781	1.002
17	975	1.750183900781	1.002
17	1017	1.770183900781	1.002
17	1032	1.790183900781	1.002
17	1050	1.810183900781	1.002
17	1052	1.830183900781	1.002
17	1055	1.850183900781	1.002
17	1097	1.870183900781	1.002
17	1112	1.890183900781	1.002
17	1130	1.910183900781	1.002
17	1132	1.930183900781	1.002
17	1135	1.950183900781	1.002
17	1177	1.970183900781	1.002
17	1192	1.990183900781	1.002
17	1210	2.010183900781	1.002
17	1212	2.030183900781	1.002
17	1215	2.050183900781	1.002
17	1257	2.070183900781	1.002
17	1272	2.090183900781	1.002
17	1290	2.110183900781	1.002
17	1292	2.130183900781	1.002
17	1295	2.150183900781	1.002
17	1337	2.170183900781	1.002
17	1352	2.190183900781	1.002
17	1370	2.210183900781	1.002
17	1372	2.230183900781	1.002
17	1375	2.250183900781	1.002
17	1417	2.270183900781	1.002
17	1432	2.290183900781	1.002
17	1450	2.310183900781	1.002
17	1452	2.330183900781	1.002
17	1455	2.350183900781	1.002
17	1497	2.370183900781	1.002
17	1512	2.390183900781	1.002
17	1530	2.410183900781	1.002
17	1532	2.430183900781	1.002
17	1535	2.450183900781	1.002
17	1577	2.470183900781	1.002
17	1592	2.490183900781	1.002
17	1610	2.510183900781	1.002
17	1612	2.530183900781	1.002
17	1615	2.550183900781	1.002
17	1657	2.570183900781	1.002
17	1672	2.590183900781	1.002
17	1690	2.610183900781	1.002
17	1692	2.630183900781	1.002
17	1695	2.650183900781	1.002
17	1737	2.670183900781	1.002
17	1752	2.690183900781	1.002
17	1770	2.710183900781	1.002
17	1772	2.730183900781	1.002
17	1775	2.750183900781	1.002
17	1817	2.770183900781	1.002
17	1832	2.790183900781	1.002
17	1850	2.810183900781	1.002
17	1852	2.830183900781	1.002
17	1855	2.850183900781	1.002
17	1897	2.870183900781	1.002
17	1912	2.890183900781	1.002
17	1930	2.910183900781	1.002
17	1932	2.930183900781	1.002
17	1935	2.950183900781	1.002
17	1977	2.970183900781	1.002
17	1992	2.990183900781	1.002
17	2010	3.010183900781	1.002
17	2012	3.030183900781	1.002
17	2015	3.050183900781	1.002
17	2057	3.070183900781	1.002
17	2072	3.090183900781	1.002
17	2090	3.110183900781	1.002
17	2092	3.130183900781	1.002
17	2095	3.150183900781	1.002
17	2157	3.170183900781	1.002
17	2199	3.190183900781	1.002
17	2245	3.210183900781	1.002
17	2249	3.230183900781	1.002
17	2254	3.250183900781	1.002
17	2367	3.270183900781	1.002
17	2409	3.290183900781	1.002
17	2455	3.310183900781	1.002
17	2459	3.330183900781	1.002
17	2464	3.350183900781	1.002
17	2584	3.370183900781	1.002
17	2626	3.390183900781	1.002
17	2672	3.410183900781	1.002
17	2676	3.430183900781	1.002
17	2681	3.450183900781	1.002
17	2794	3.470183900781	1.002
17	2836	3.490183900781	1.002
17	2882	3.510183900781	1.002
17	2886	3.530183900781	1.002
17	2891	3.550183900781	1.002
17	3011	3.570183900781	1.002
17	3053	3.590183900781	1.002
17	3099	3.610183900781	1.002
17	3103	3.630183900781	1.002
17	3108	3.650183900781	1.002
17	3221	3.670183900781	1.002
17	3263	3.690183900781	1.002
17	3309	3.710183900781	1.002
17	3313	3.730183900781	1.002
17	3318	3.750183900781	1.002
17	3438	3.770183900781	1.002
17	3480	3.790183900781	1.002
17	3526	3.810183900781	1.002
17	3530	3.830183900781	1.002
17	3535	3.850183900781	1.002
17	3648	3.870183900781	1.002
17	3690	3.890183900781	1.002
17	3736	3.910183900781	1.002
17	3740	3.930183900781	1.002
17	3745	3.950183900781	1.002
17	3865	3.970183900781	1.002
17	3907	3.990183900781	1.002
17	3953	4.010183900781	1.002
17	3957	4.030183900781	1.002
17	3962	4.050183900781	1.002
17	4068	4.070183900781	1.002
17	4110	4.090183900781	1.002
17	4156	4.110183900781	1.002
17	4160	4.130183900781	1.002
17	4165	4.150183900781	1.002
17	4285	4.170183900781	1.002
17	4327	4.190183900781	1.002
17	4373	4.210183900781	1.002
17	4377	4.230183900781	1.002
17	4382	4.250183900781	1.002
17	4502	4.270183900781	1.002
17	4544	4.290183900781	1.002
17	4590	4.310183900781	1.002
17	4594	4.330183900781	1.002
17	4599	4.350183900781	1.002
17	4719	4.370183900781	1.002
17	4761	4.390183900781	1.002
17	4807	4.410183900781	1.002
17	4811	4.430183900781	1.002
17	4816	4.450183900781	1.002
17	4929	4.470183900781	1.002
17	4971	4.490183900781	1.002
17	5017	4.510183900781	1.002
17	5021	4.530183900781	1.002
17	5026	4.550183900781	1.002
17	5139	4.570183900781	1.002
17	5181	4.590183900781	1.002
17	5227	4.610183900781	1.002
17	5231	4.630183900781	1.002
17	5236	4.650183900781	1.002
17	5349	4.670183900781	1.002
17	5391	4.690183900781	1.002
17	5437	4.710183900781	1.002
17	5441	4.730183900781	1.002
17	5446	4.750183900781	1.002
17	5559	4.770183900781	1.002
17	5601	4.790183900781	1.002
17	5647	4.810183900781	1.002
17	5651	4.830183900781	1.002
17	5656	4.850183900781	1.002
17	5776	4.870183900781	1.002
17	5818	4.890183900781	1.002
17	5864	4.910183900781	1.002
17	5868	4.930183900781	1.002
17	5873	4.950183900781	1.002
17	5986	4.970183900781	1.002
17	6028	4.990183900781	1.002
17	6074	5.010183900781	1.002
17	6078	5.030183900781	1.002
17	6083	5.050183900781	1.002
17	6196	5.070183900781	1.002
17	6238	5.090183900781	1.002
17	6284	5.110183900781	1.002
17	6288	5.130183900781	1.002
17	6293	5.150183900781	1.002
17	6406	5.170183900781	1.002
17	6448	5.190183900781	1.002
17	6494	5.210183900781	1.002
17	6498	5.230183900781	1.002
17	6503	5.250183900781	1.002
17	6623	5.270183900781	1.002
17	6665	5.290183900781	1.002
17	6711	5.310183900781	1.002
17	6715	5.330183900781	1.002
17	6720	5.350183900781	1.002
17	6833	5.370183900781	1.002
17	6875	5.390183900781	1.002
17	6921	5.410183900781	1.002
17	6925	5.430183900781	1.002
17	6930	5.450183900781	1.002
17	7043	5.470183900781	1.002
17	7085	5.490183900781	1.002
17	7131	5.510183900781	1.002
17	7135	5.530183900781	1.002
17	7140	5.550183900781	1.002
17	7260	5.570183900781	1.002
17	7302	5.590183900781	1.002
17	7348	5.610183900781	1.002
17	7352	5.630183900781	1.002
17	7357	5.650183900781	1.002
17	7470	5.670183900781	1.002
17	7512	5.690183900781	1.002
17	7558	5.710183900781	1.002
17	7562	5.730183900781	1.002
17	7567	5.750183900781	1.002
17	7680	5.770183900781	1.002
17	7722	5.790183900781	1.002
17	7768	5.810183900781	1.002
17	7772	5.830183900781	1.002
17	7777	5.850183900781	1.002
17	7897	5.870183900781	1.002
17	7939	5.890183900781	1.002
17	7985	5.910183900781	1.002
17	7989	5.930183900781	1.002
17	7994	5.950183900781	1.002
17	8114	5.970183900781	1.002
17	8156	5.990183900781	1.002
17	8202	6.010183900781	1.002
17	8206	6.030183900781	1.002
17	8211	6.050183900781	1.002
17	8317	6.070183900781	1.002
17	8359	6.090183900781	1.002
17	8405	6.110183900781	1.002
17	8409	6.130183900781	1.002
17	8414	6.150183900781	1.002
17	8561	6.170183900781	1.002
17	8615	6.190183900781	1.002
17	8674	6.210183900781	1.002
17	8678	6.230183900781	1.002
17	8683	6.250183900781	1.002
17	8857	6.270183900781	1.002
17	8938	6.290183900781	1.002
17	9024	6.310183900781	1.002
17	9030	6.330183900781	1.002
17	9037	6.350183900781	1.002
17	9251	6.370183900781	1.002
17	9332	6.390183900781	1.002
17	9418	6.410183900781	1.002
17	9424	6.430183900781	1.002
17	9431	6.450183900781	1.002
17	9648	6.470183900781	1.002
17	9729	6.490183900781	1.002
17	9815	6.510183900781	1.002
17	9821	6.530183900781	1.002
17	9828	6.550183900781	1.002
17	10045	6.570183900781	1.002
17	10126	6.590183900781	1.002
17	10212	6.610183900781	1.002
17	10218	6.630183900781	1.002
17	10225	6.650183900781	1.002
17	10439	6.670183900781	1.002
17	10520	6.690183900781	1.002
17	10606	6.710183900781	1.002
17	10612	6.730183900781	1.002
17	10619	6.750183900781	1.002
17	10833	6.770183900781	1.002
17	10914	6.790183900781	1.002
17	11000	6.810183900781	1.002
17	11006	6.830183900781	1.002
17	11013	6.850183900781	1.002
17	11217	6.870183900781	1.002
17	11298	6.890183900781	1.002
17	11384	6.910183900781	1.002
17	11390	6.930183900781	1.002
17	11397	6.950183900781	1.002
17	11611	6.970183900781	1.002
17	11692	6.990183900781	1.002
17	11778	7.010183900781	1.002
17	11784	7.030183900781	1.002
17	11791	7.050183900781	1.002
17	12005	7.070183900781	1.002
17	12086	7.090183900781	1.002
17	12172	7.110183900781	1.002
17	12178	7.130183900781	1.002
17	12185	7.150183900781	1.002
17	12399	7.170183900781	1.002
17	12480	7.190183900781	1.002
17	12566	7.210183900781	1.002
17	12572	7.230183900781	1.002
17	12579	7.250183900781	1.002
17	12793	7.270183900781	1.002
17	12874	7.290183900781	1.002
17	12960	7.310183900781	1.002
17	12966	7.330183900781	1.002
17	12973	7.350183900781	1.002
17	13197	7.370183900781	1.002
17	13278	7.390183900781	1.002
17	13364	7.410183900781	1.002
17	13370	7.430183900781	1.002
17	13377	7.450183900781	1.002
17	13594	7.470183900781	1.002
17	13675	7.490183900781	1.002
17	13761	7.510183900781	1.002
17	13767	7.530183900781	1.002
17	13774	7.550183900781	1.002
17	13991	7.570183900781	1.002
17	14072	7.590183900781	1.002
17	14158	7.610183900781	1.002
17	14164	7.630183900781	1.002
17	14171	7.650183900781	1.002
17	14395	7.670183900781	1.002
17	14476	7.690183900781	1.002
17	14562	7.710183900781	1.002
17	14568	7.730183900781	1.002
17	14575	7.750183900781	1.002
17	14799	7.770183900781	1.002
17	14880	7.790183900781	1.002
17	14966	7.810183900781	1.002
17	14972	7.830183900781	1.002
17	14979	7.850183900781	1.002
17	15203	7.870183900781	1.002
17	15284	7.890183900781	1.002
17	15370	7.910183900781	1.002
17	15376	7.930183900781	1.002
17	15383	7.950183900781	1.002
17	15597	7.970183900781	1.002
17	15678	7.990183900781	1.002
17	15764	8.010183900781	1.002
17	15770	8.030183900781	1.002
17	15777	8.050183900781	1.002
17	16001	8.070183900781	1.002
17	16082	8.090183900781	1.002
17	16168	8.110183900781	1.002
17	16174	8.130183900781	1.002
17	16181	8.150183900781	1.002
17	16405	8.170183900781	1.002
17	16486	8.190183900781	1.002
17	16572	8.210183900781	1.002
17	16578	8.230183900781	1.002
17	16585	8.250183900781	1.002
17	16802	8.270183900781	1.002
17	16883	8.290183900781	1.002
17	16969	8.310183900781	1.002
17	16975	8.330183900781	1.002
17	16982	8.350183900781	1.002
17	17206	8.370183900781	1.002
17	17287	8.390183900781	1.002
17	17373	8.410183900781	1.002
17	17379	8.430183900781	1.002
17	17386	8.450183900781	1.002
17	17603	8.470183900781	1.002
17	17684	8.490183900781	1.002
17	17770	8.510183900781	1.002
17	17776	8.530183900781	1.002
17	17783	8.550183900781	1.002
17	17997	8.570183900781	1.002
17	18078	8.590183900781	1.002
17	18164	8.610183900781	1.002
17	18170	8.630183900781	1.002
17	18177	8.650183900781	1.002
17	18391	8.670183900781	1.002
17	18472	8.690183900781	1.002
17	18558	8.710183900781	1.002
17	18564	8.730183900781	1.002
17	18571	8.750183900781	1.002
17	18795	8.770183900781	1.002
17	18876	8.790183900781	1.002
17	18962	8.810183900781	1.002
17	18968	8.830183900781	1.002
17	18975	8.850183900781	1.002
17	19192	8.870183900781	1.002
17	19273	8.890183900781	1.002
17	19359	8.910183900781	1.002
17	19365	8.930183900781	1.002
17	19372	8.950183900781	1.002
17	19589	8.970183900781	1.002
17	19670	8.990183900781	1.002
17	19756	9.010183900781	1.002
17	19762	9.030183900781	1.002
17	19769	9.050183900781	1.002
17	19986	9.070183900781	1.002
17	20067	9.090183900781	1.002
17	20153	9.110183900781	1.002
17	20159	9.130183900781	1.002
17	20167	9.150183900781	1.002
17	20442	9.170183900781	1.002
17	20541	9.190183900781	1.002
17	20646	9.210183900781	1.002
17	20652	9.230183900781	1.002
17	20662	9.250183900781	1.002
17	20992	9.270183900781	1.002
17	21124	9.290183900781	1.002
17	21231	9.310183900781	1.002
17	21239	9.330183900781	1.002
17	21249	9.350183900781	1.002
17	21616	9.370183900781	1.002
17	21748	9.390183900781	1.002
17	21855	9.410183900781	1.002
17	21863	9.430183900781	1.002
17	21873	9.450183900781	1.002
17	22253	9.470183900781	1.002
17	22385	9.490183900781	1.002
17	22492	9.510183900781	1.002
17	22500	9.530183900781	1.002
17	22510	9.550183900781	1.002
17	22889	9.570183900781	1.002
17	23021	9.590183900781	1.002
17	23128	9.610183900781	1.002
17	23136	9.630183900781	1.002
17	23146	9.650183900781	1.002
17	23503	9.670183900781	1.002
17	23635	9.690183900781	1.002
17	23742	9.710183900781	1.002
17	23750	9.730183900781	1.002
17	23760	9.750183900781	1.002
17	24122	9.770183900781	1.002
17	24254	9.790183900781	1.002
17	24361	9.810183900781	1.002
17	24369	9.830183900781	1.002
17	24379	9.850183900781	1.002
17	24754	9.870183900781	1.002
17	24886	9.890183900781	1.002
17	24993	9.910183900781	1.002
17	25001	9.930183900781	1.002
17	25011	9.950183900781	1.002
17	25403	9.970183900781	1.002
17	25535	9.990183900781	1.002
17	25642	10.010183900781	1.002
17	25650	10.030183900781	1.002
17	25660	10.050183900781	1.002
17	26049	10.070183900781	1.002
17	26181	10.090183900781	1.002
17	26288	10.110183900781	1.002
17	26296	10.130183900781	1.002
17	26306	10.150183900781	1.002
17	26685	10.170183900781	1.002
17	26817	10.190183900781	1.002
17	26924	10.210183900781	1.002
17	26932	10.230183900781	1.002
17	26942	10.250183900781	1.002
17	27308	10.270183900781	1.002
17	27440	10.290183900781	1.002
17	27547	10.310183900781	1.002
17	27555	10.330183900781	1.002
17	27565	10.350183900781	1.002
17	27927	10.370183900781	1.002
17	28059	10.390183900781	1.002
17	28166	10.410183900781	1.002
17	28174	10.430183900781	1.002
17	28184	10.450183900781	1.002
17	28563	10.470183900781	1.002
17	28695	10.490183900781	1.002
17	28802	10.510183900781	1.002
17	28810	10.530183900781	1.002
17	28820	10.550183900781	1.002
17	29221	10.570183900781	1.002
17	29353	10.590183900781	1.002
17	29460	10.610183900781	1.002
17	29468	10.630183900781	1.002
17	29478	10.650183900781	1.002
17	29844	10.670183900781	1.002
17	29976	10.690183900781	1.002
17	30083	10.710183900781	1.002
17	30091	10.730183900781	1.002
17	30101	10.750183900781	1.002
17	30454	10.770183900781	1.002
17	30586	10.790183900781	1.002
17	30693	10.810183900781	1.002
17	30701	10.830183900781	1.002
17	30711	10.850183900781	1.002
17	31077	10.870183900781	1.002
17	31209	10.890183900781	1.002
17	31316	10.910183900781	1.002
17	31324	10.930183900781	1.002
17	31334	10.950183900781	1.002
17	31687	10.970183900781	1.002
17	31819	10.990183900781	1.002
17	31926	11.010183900781	1.002
17	31934	11.030183900781	1.002
17	31944	11.050183900781	1.002
17	32301	11.070183900781	1.002
17	32433	11.090183900781	1.002
17	32540	11.110183900781	1.002
17	32548	11.130183900781	1.002
17	32558	11.150183900781	1.002
17	32924	11.170183900781	1.002
17	33056	11.190183900781	1.002
17	33163	11.210183900781	1.002
17	33171	11.230183900781	1.002
17	33181	11.250183900781	1.002
17	33538	11.270183900781	1.002
17	33670	11.290183900781	1.002
17	33777	11.310183900781	1.002
17	33785	11.330183900781	1.002
17	33795	11.350183900781	1.002
17	34174	11.370183900781	1.002
17	34306	11.390183900781	1.002
17	34413	11.410183900781	1.002
17	34421	11.430183900781	1.002
17	34431	11.450183900781	1.002
17	34810	11.470183900781	1.002
17	34942	11.490183900781	1.002
17	35049	11.510183900781	1.002
17	35057	11.530183900781	1.002
17	35067	11.550183900781	1.002
17	35429	11.570183900781	1.002
17	35561	11.590183900781	1.002
17	35668	11.610183900781	1.002
17	35676	11.630183900781	1.002
17	35686	11.650183900781	1.002
17	36030	11.670183900781	1.002
17	36162	11.690183900781	1.002
17	36269	11.710183900781	1.002
17	36277	11.730183900781	1.002
17	36287	11.750183900781	1.002
17	36666	11.770183900781	1.002
17	36798	11.790183900781	1.002
17	36905	11.810183900781	1.002
17	36913	11.830183900781	1.002
17	36923	11.850183900781	1.002
17	37298	11.870183900781	1.002
17	37430	11.890183900781	1.002
17	37537	11.910183900781	1.002
17	37545	11.930183900781	1.002
17	37555	11.950183900781	1.002
17	37921	11.970183900781	1.002
17	38053	11.990183900781	1.002
17	38160	12.010183900781	1.002
17	38168	12.030183900781	1.002
17	38178	12.050183900781	1.002
17	38522	12.070183900781	1.002
17	38654	12.090183900781	1.002
17	38761	12.110183900781	1.002
17	38769	12.130183900781	1.002
17	38780	12.150183900781	1.002
17	39214	12.170183900781	1.002
17	39370	12.190183900781	1.002
17	39496	12.210183900781	1.002
17	39504	12.230183900781	1.002
17	39515	12.250183900781	1.002
17	39976	12.270183900781	1.002
17	40132	12.290183900781	1.002
17	40258	12.310183900781	1.002
17	40266	12.330183900781	1.002
17	40277	12.350183900781	1.002
17	40721	12.370183900781	1.002
17	40877	12.390183900781	1.002
17	41003	12.410183900781	1.002
17	41011	12.430183900781	1.002
17	41022	12.450183900781	1.002
17	41510	12.470183900781	1.002
17	41705	12.490183900781	1.002
17	41833	12.510183900781	1.002
17	41843	12.530183900781	1.002
17	41856	12.550183900781	1.002
17	42452	12.570183900781	1.002
17	42647	12.590183900781	1.002
17	42775	12.610183900781	1.002
17	42785	12.630183900781	1.002
17	42798	12.650183900781	1.002
17	43360	12.670183900781	1.002
17	43555	12.690183900781	1.002
17	43683	12.710183900781	1.002
17	43693	12.730183900781	1.002
17	43706	12.750183900781	1.002
17	44259	12.770183900781	1.002
17	44454	12.790183900781	1.002
17	44582	12.810183900781	1.002
17	44592	12.830183900781	1.002
17	44605	12.850183900781	1.002
17	45188	12.870183900781	1.002
17	45383	12.890183900781	1.002
17	45511	12.910183900781	1.002
17	45521	12.930183900781	1.002
17	45534	12.950183900781	1.002
17	46074	12.970183900781	1.002
17	46269	12.990183900781	1.002
17	46397	13.010183900781	1.002
17	46407	13.030183900781	1.002
17	46420	13.050183900781	1.002
17	47008	13.070183900781	1.002
17	47203	13.090183900781	1.002
17	47331	13.110183900781	1.002
17	47341	13.130183900781	1.002
17	47354	13.150183900781	1.002
17	47904	13.170183900781	1.002
17	48099	13.190183900781	1.002
17	48227	13.210183900781	1.002
17	48237	13.230183900781	1.002
17	48250	13.250183900781	1.002
17	48801	13.270183900781	1.002
17	48996	13.290183900781	1.002
17	49124	13.310183900781	1.002
17	49134	13.330183900781	1.002
17	49147	13.350183900781	1.002
17	49703	13.370183900781	1.002
17	49898	13.390183900781	1.002
17	50026	13.410183900781	1.002
17	50036	13.430183900781	1.002
17	50049	13.450183900781	1.002
17	50605	13.470183900781	1.002
17	50800	13.490183900781	1.002
17	50928	13.510183900781	1.002
17	50938	13.530183900781	1.002
17	50951	13.550183900781	1.002
17	51523	13.570183900781	1.002
17	51718	13.590183900781	1.002
17	51846	13.610183900781	1.002
17	51856	13.630183900781	1.002
17	51869	13.650183900781	1.002
17	52468	13.670183900781	1.002
17	52663	13.690183900781	1.002
17	52791	13.710183900781	1.002
17	52801	13.730183900781	1.002
17	52814	13.750183900781	1.002
17	53375	13.770183900781	1.002
17	53570	13.790183900781	1.002
17	53698	13.810183900781	1.002
17	53708	13.830183900781	1.002
17	53721	13.850183900781	1.002
17	54300	13.870183900781	1.002
17	54495	13.890183900781	1.002
17	54623	13.910183900781	1.002
17	54633	13.930183900781	1.002
17	54646	13.950183900781	1.002
17	55214	13.970183900781	1.002
17	55409	13.990183900781	1.002
17	55537	14.010183900781	1.002
17	55547	14.030183900781	1.002
17	55560	14.050183900781	1.002
17	56143	14.070183900781	1.002
17	56338	14.090183900781	1.002
17	56466	14.110183900781	1.002
17	56476	14.130183900781	1.002
17	56489	14.150183900781	1.002
17	57051	14.170183900781	1.002
17	57246	14.190183900781	1.002
17	57374	14.210183900781	1.002
17	57384	14.230183900781	1.002
17	57397	14.250183900781	1.002
17	57969	14.270183900781	1.002
17	58164	14.290183900781	1.002
17	58292	14.310183900781	1.002
17	58302	14.330183900781	1.002
17	58315	14.350183900781	1.002
17	58887	14.370183900781	1.002
17	59082	14.390183900781	1.002
17	59210	14.410183900781	1.002
17	59220	14.430183900781	1.002
17	59233	14.450183900781	1.002
17	59805	14.470183900781	1.002
17	60000	14.490183900781	1.002
17	60128	14.510183900781	1.002
17	60138	14.530183900781	1.002
17	60151	14.550183900781	1.002
17	60718	14.570183900781	1.002
17	60913	14.590183900781	1.002
17	61041	14.610183900781	1.002
17	61051	14.630183900781	1.002
17	61064	14.650183900781	1.002
17	61604	14.670183900781	1.002
17	61799	14.690183900781	1.002
17	61927	14.710183900781	1.002
17	61937	14.730183900781	1.002
17	61950	14.750183900781	1.002
17	62516	14.770183900781	1.002
17	62711	14.790183900781	1.002
17	62839	14.810183900781	1.002
17	62849	14.830183900781	1.002
17	62862	14.850183900781	1.002
17	63414	14.870183900781	1.002
17	63609	14.890183900781	1.002
17	63737	14.910183900781	1.002
17	63747	14.930183900781	1.002
17	63760	14.950183900781	1.002
17	64321	14.970183900781	1.002
17	64516	14.990183900781	1.002
17	64644	15.010183900781	1.002
17	64654	15.030183900781	1.002
17	64667	15.050183900781	1.002
17	65245	15.070183900781	1.002
17	65440	15.090183900781	1.002
17	65568	15.110183900781	1.002
17	65578	15.130183900781	1.002
17	65591	15.150183900781	1.002
17	66131	15.170183900781	1.002
17	66326	15.190183900781	1.002
17	66454	15.210183900781	1.002
17	66464	15.230183900781	1.002
17	66477	15.250183900781	1.002
17	67028	15.270183900781	1.002
17	67223	15.290183900781	1.002
17	67351	15.310183900781	1.002
17	67361	15.330183900781	1.002
17	67374	15.350183900781	1.002
17	67957	15.370183900781	1.002
17	68152	15.390183900781	1.002
17	68280	15.410183900781	1.002
17	68290	15.430183900781	1.002
17	68303	15.450183900781	1.002
17	68859	15.470183900781	1.002
17	69054	15.490183900781	1.002
17	69182	15.510183900781	1.002
17	69192	15.530183900781	1.002
17	69205	15.550183900781	1.002
17	69761	15.570183900781	1.002
17	69956	15.590183900781	1.002
17	70084	15.610183900781	1.002
17	70094	15.630183900781	1.002
17	70107	15.650183900781	1.002
17	70674	15.670183900781	1.002
17	70869	15.690183900781	1.002
17	70997	15.710183900781	1.002
17	71007	15.730183900781	1.002
17	71020	15.750183900781	1.002
17	71587	15.770183900781	1.002
17	71782	15.790183900781	1.002
17	71910	15.810183900781	1.002
17	71920	15.830183900781	1.002
17	71933	15.850183900781	1.002
17	72516	15.870183900781	1.002
17	72711	15.890183900781	1.002
17	72839	15.910183900781	1.002
17	72849	15.930183900781	1.002
17	72862	15.950183900781	1.002
17	73440	15.970183900781	1.002
17	73635	15.990183900781	1.002
17	73763	16.010183900781	1.002
17	73773	16.030183900781	1.002
17	73786	16.050183900781	1.002
17	74369	16.070183900781	1.002
17	74564	16.090183900781	1.002
17	74692	16.110183900781	1.002
17	74702	16.130183900781	1.002
17	74715	16.150183900781	1.002
17	75277	16.170183900781	1.002
17	75472	16.190183900781	1.002
17	75600	16.210183900781	1.002
17	75610	16.230183900781	1.002
17	75623	16.250183900781	1.002
17	76184	16.270183900781	1.002
17	76379	16.290183900781	1.002
17	76507	16.310183900781	1.002
17	76517	16.330183900781	1.002
17	76530	16.350183900781	1.002
17	77065	16.370183900781	1.002
17	77260	16.390183900781	1.002
17	77388	16.410183900781	1.002
17	77398	16.430183900781	1.002
17	77411	16.450183900781	1.002
17	77983	16.470183900781	1.002
17	78178	16.490183900781	1.002
17	78306	16.510183900781	1.002
17	78316	16.530183900781	1.002
17	78329	16.550183900781	1.002
17	78885	16.570183900781	1.002
17	79080	16.590183900781	1.002
17	79208	16.610183900781	1.002
17	79218	16.630183900781	1.002
17	79231	16.650183900781	1.002
17	79792	16.670183900781	1.002
17	79987	16.690183900781	1.002
17	80115	16.710183900781	1.002
17	80125	16.730183900781	1.002
17	80138	16.750183900781	1.002
17	80683	16.770183900781	1.002
17	80878	16.790183900781	1.002
17	81006	16.810183900781	1.002
17	81016	16.830183900781	1.002
17	81029	16.850183900781	1.002
17	81585	16.870183900781	1.002
17	81780	16.890183900781	1.002
17	81908	16.910183900781	1.002
17	81918	16.930183900781	1.002
17	81931	16.950183900781	1.002
17	82482	16.970183900781	1.002
17	82677	16.990183900781	1.002
17	82805	17.010183900781	1.002
17	82815	17.030183900781	1.002
17	82828	17.050183900781	1.002
17	83373	17.070183900781	1.002
17	83568	17.090183900781	1.002
17	83696	17.110183900781	1.002
17	83706	17.130183900781	1.002
17	83719	17.150183900781	1.002
17	84259	17.170183900781	1.002
17	84454	17.190183900781	1.002
17	84582	17.210183900781	1.002
17	84592	17.230183900781	1.002
17	84605	17.250183900781	1.002
17	85150	17.270183900781	1.002
17	85345	17.290183900781	1.002
17	85473	17.310183900781	1.002
17	85483	17.330183900781	1.002
17	85496	17.350183900781	1.002
17	86041	17.370183900781	1.002
17	86236	17.390183900781	1.002
17	86364	17.410183900781	1.002
17	86374	17.430183900781	1.002
17	86387	17.450183900781	1.002
17	86938	17.470183900781	1.002
17	87133	17.490183900781	1.002
17	87261	17.510183900781	1.002
17	87271	17.530183900781	1.002
17	87284	17.550183900781	1.002
17	87856	17.570183900781	1.002
17	88051	17.590183900781	1.002
17	88179	17.610183900781	1.002
17	88189	17.630183900781	1.002
17	88202	17.650183900781	1.002
17	88758	17.670183900781	1.002
17	88953	17.690183900781	1.002
17	89081	17.710183900781	1.002
17	89091	17.730183900781	1.002
17	89104	17.750183900781	1.002
17	89671	17.770183900781	1.002
17	89866	17.790183900781	1.002
17	89994	17.810183900781	1.002
17	90004	17.830183900781	1.002
17	90017	17.850183900781	1.002
17	90568	17.870183900781	1.002
17	90763	17.890183900781	1.002
17	90891	17.910183900781	1.002
17	90901	17.930183900781	1.002
17	90914	17.950183900781	1.002
17	91460	17.970183900781	1.002
17	91655	17.990183900781	1.002
17	91783	18.010183900781	1.002
17	91793	18.030183900781	1.002
17	91806	18.050183900781	1.002
17	92368	18.070183900781	1.002
17	92563	18.090183900781	1.002
17	92691	18.110183900781	1.002
17	92701	18.130183900781	1.002
17	92714	18.150183900781	1.002
17	93254	18.170183900781	1.002
17	93449	18.190183900781	1.002
17	93577	18.210183900781	1.002
17	93587	18.230183900781	1.002
17	93600	18.250183900781	1.002
17	94134	18.270183900781	1.002
17	94329	18.290183900781	1.002
17	94457	18.310183900781	1.002
17	94467	18.330183900781	1.002
17	94480	18.350183900781	1.002
17	95047	18.370183900781	1.002
17	95242	18.390183900781	1.002
17	95370	18.410183900781	1.002
17	95380	18.430183900781	1.002
17	95393	18.450183900781	1.002
17	95960	18.470183900781	1.002
17	96155	18.490183900781	1.002
17	96283	18.510183900781	1.002
17	96293	18.530183900781	1.002
17	96306	18.550183900781	1.002
17	96841	18.570183900781	1.002
17	97036	18.590183900781	1.002
17	97164	18.610183900781	1.002
17	97174	18.630183900781	1.002
17	97187	18.650183900781	1.002
17	97754	18.670183900781	1.002
17	97949	18.690183900781	1.002
17	98077	18.710183900781	1.002
17	98087	18.730183900781	1.002
17	98100	18.750183900781	1.002
17	98651	18.770183900781	1.002
17	98846	18.790183900781	1.002
17	98974	18.810183900781	1.002
17	98984	18.830183900781	1.002
17	98997	18.850183900781	1.002
17	99559	18.870183900781	1.002
17	99754	18.890183900781	1.002
17	99882	18.910183900781	1.002
17	99892	18.930183900781	1.002
17	99905	18.950183900781	1.002
17	100450	18.970183900781	1.002
17	100645	18.990183900781	1.002
17	100773	19.010183900781	1.002
17	100783	19.030183900781	1.002
17	100796	19.050183900781	1.002
17	101352	19.070183900781	1.002
17	101547	19.090183900781	1.002
17	101675	19.110183900781	1.002
17	101685	19.130183900781	1.002
17	101698	19.150183900781	1.002
17	102259	19.170183900781	1.002
17	102454	19.190183900781	1.002
17	102582	19.210183900781	1.002
17	102592	19.230183900781	1.002
17	102605	19.250183900781	1.002
17	103150	19.270183900781	1.002
17	103345	19.290183900781	1.002
17	103473	19.310183900781	1.002
17	103483	19.330183900781	1.002
17	103496	19.350183900781	1.002
17	104046	19.370183900781	1.002
17	104241	19.390183900781	1.002
17	104369	19.410183900781	1.002
17	104379	19.430183900781	1.002
17	104392	19.450183900781	1.002
17	104975	19.470183900781	1.002
17	105170	19.490183900781	1.002
17	105298	19.510183900781	1.002
17	105308	19.530183900781	1.002
17	105321	19.550183900781	1.002
17	105904	19.570183900781	1.002
17	106099	19.590183900781	1.002
17	106227	19.610183900781	1.002
17	106237	19.630183900781	1.002
17	106250	19.650183900781	1.002
17	106822	19.670183900781	1.002
17	107017	19.690183900781	1.002
17	107145	19.710183900781	1.002
17	107155	19.730183900781	1.002
17	107168	19.750183900781	1.002
17	107724	19.770183900781	1.002
17	107919	19.790183900781	1.002
17	108047	19.810183900781	1.002
17	108057	19.830183900781	1.002
17	108070	19.850183900781	1.002
17	108621	19.870183900781	1.002
17	108816	19.890183900781	1.002
17	108944	19.910183900781	1.002
17	108954	19.930183900781	1.002
17	108967	19.950183900781	1.002
17	109517	19.970183900781	1.002
17	109712	19.990183900781	1.002
17	109840	20.010183900781	1.002
17	109850	20.030183900781	1.002
17	109863	20.050183900781	1.002
17	110430	20.070183900781	1.002
17	110625	20.090183900781	1.002
17	110753	20.110183900781	1.002
17	110763	20.130183900781	1.002
17	110776	20.150183900781	1.002
17	111343	20.170183900781	1.002
17	111538	20.190183900781	1.002
17	111666	20.210183900781	1.002
17	111676	20.230183900781	1.002
17	111689	20.250183900781	1.002
17	112245	20.270183900781	1.002
17	112440	20.290183900781	1.002
17	112568	20.310183900781	1.002
17	112578	20.330183900781	1.002
17	112591	20.350183900781	1.002
17	113147	20.370183900781	1.002
17	113342	20.390183900781	1.002
17	113470	20.410183900781	1.002
17	113480	20.430183900781	1.002
17	113493	20.450183900781	1.002
17	114060	20.470183900781	1.002
17	114255	20.490183900781	1.002
17	114383	20.510183900781	1.002
17	114393	20.530183900781	1.002
17	114406	20.550183900781	1.002
17	114951	20.570183900781	1.002
17	115146	20.590183900781	1.002
17	115274	20.610183900781	1.002
17	115284	20.630183900781	1.002
17	115297	20.650183900781	1.002
17	115853	20.670183900781	1.002
17	116048	20.690183900781	1.002
17	116176	20.710183900781	1.002
17	116186	20.730183900781	1.002
17	116199	20.750183900781	1.002
17	116766	20.770183900781	1.002
17	116961	20.790183900781	1.002
17	117089	20.810183900781	1.002
17	117099	20.830183900781	1.002
17	117112	20.850183900781	1.002
17	117668	20.870183900781	1.002
17	117863	20.890183900781	1.002
17	117991	20.910183900781	1.002
17	118001	20.930183900781	1.002
17	118014	20.950183900781	1.002
17	118608	20.970183900781	1.002
17	118803	20.990183900781	1.002
17	118931	21.010183900781	1.002
17	118941	21.030183900781	1.002
17	118954	21.050183900781	1.002
17	119499	21.070183900781	1.002
17	119694	21.090183900781	1.002
17	119822	21.110183900781	1.002
17	119832	21.130183900781	1.002
17	119845	21.150183900781	1.002
17	120412	21.170183900781	1.002
17	120607	21.190183900781	1.002
17	120735	21.210183900781	1.002
17	120745	21.230183900781	1.002
17	120758	21.250183900781	1.002
17	121330	21.270183900781	1.002
17	121525	21.290183900781	1.002
17	121653	21.310183900781	1.002
17	121663	21.330183900781	1.002
17	121676	21.350183900781	1.002
17	122227	21.370183900781	1.002
17	122422	21.390183900781	1.002
17	122550	21.410183900781	1.002
17	122560	21.430183900781	1.002
17	122573	21.450183900781	1.002
17	123129	21.470183900781	1.002
17	123324	21.490183900781	1.002
17	123452	21.510183900781	1.002
17	123462	21.530183900781	1.002
17	123475	21.550183900781	1.002
17	124020	21.570183900781	1.002
17	124215	21.590183900781	1.002
17	124343	21.610183900781	1.002
17	124353	21.630183900781	1.002
17	124366	21.650183900781	1.002
17	124943	21.670183900781	1.002
17	125138	21.690183900781	1.002
17	125266	21.710183900781	1.002
17	125276	21.730183900781	1.002
17	125289	21.750183900781	1.002
17	125834	21.770183900781	1.002
17	126029	21.790183900781	1.002
17	126157	21.810183900781	1.002
17	126167	21.830183900781	1.002
17	126180	21.850183900781	1.002
17	126752	21.870183900781	1.002
17	126947	21.890183900781	1.002
17	127075	21.910183900781	1.002
17	127085	21.930183900781	1.002
17	127098	21.950183900781	1.002
17	127632	21.970183900781	1.002
17	127827	21.990183900781	1.002
17	127955	22.010183900781	1.002
17	127965	22.030183900781	1.002
17	127978	22.050183900781	1.002
17	128529	22.070183900781	1.002
17	128724	22.090183900781	1.002
17	128852	22.110183900781	1.002
17	128862	22.130183900781	1.002
17	128875	22.150183900781	1.002
17	129436	22.170183900781	1.002
17	129631	22.190183900781	1.002
17	129759	22.210183900781	1.002
17	129769	22.230183900781	1.002
17	129782	22.250183900781	1.002
17	130322	22.270183900781	1.002
17	130517	22.290183900781	1.002
17	130645	22.310183900781	1.002
17	130655	22.330183900781	1.002
17	130668	22.350183900781	1.002
17	131235	22.370183900781	1.002
17	131430	22.390183900781	1.002
17	131558	22.410183900781	1.002
17	131568	22.430183900781	1.002
17	131581	22.450183900781	1.002
17	132127	22.470183900781	1.002
17	132322	22.490183900781	1.002
17	132450	22.510183900781	1.002
17	132460	22.530183900781	1.002
17	132473	22.550183900781	1.002
17	133056	22.570183900781	1.002
17	133251	22.590183900781	1.002
17	133379	22.610183900781	1.002
17	133389	22.630183900781	1.002
17	133402	22.650183900781	1.002
17	133958	22.670183900781	1.002
17	134153	22.690183900781	1.002
17	134281	22.710183900781	1.002
17	134291	22.730183900781	1.002
17	134304	22.750183900781	1.002
17	134860	22.770183900781	1.002
17	135055	22.790183900781	1.002
17	135183	22.810183900781	1.002
17	135193	22.830183900781	1.002
17	135206	22.850183900781	1.002
17	135773	22.870183900781	1.002
17	135968	22.890183900781	1.002
17	136096	22.910183900781	1.002
17	136106	22.930183900781	1.002
17	136119	22.950183900781	1.002
17	136691	22.970183900781	1.002
17	136886	22.990183900781	1.002
17	137014	23.010183900781	1.002
17	137024	23.030183900781	1.002
17	137037	23.050183900781	1.002
17	137588	23.070183900781	1.002
17	137783	23.090183900781	1.002
17	137911	23.110183900781	1.002
17	137921	23.130183900781	1.002
17	137934	23.150183900781	1.002
17	138490	23.170183900781	1.002
17	138685	23.190183900781	1.002
17	138813	23.210183900781	1.002
17	138823	23.230183900781	1.002
17	138836	23.250183900781	1.002
17	139376	23.270183900781	1.002
17	139571	23.290183900781	1.002
17	139699	23.310183900781	1.002
17	139709	23.330183900781	1.002
17	139722	23.350183900781	1.002
17	140267	23.370183900781	1.002
17	140462	23.390183900781	1.002
17	140590	23.410183900781	1.002
17	140600	23.430183900781	1.002
17	140613	23.450183900781	1.002
17	141180	23.470183900781	1.002
17	141375	23.490183900781	1.002
17	141503	23.510183900781	1.002
17	141513	23.530183900781	1.002
17	141526	23.550183900781	1.002
17	142109	23.570183900781	1.002
17	142304	23.590183900781	1.002
17	142432	23.610183900781	1.002
17	142442	23.630183900781	1.002
17	142455	23.650183900781	1.002
17	143048	23.670183900781	1.002
17	143243	23.690183900781	1.002
17	143371	23.710183900781	1.002
17	143381	23.730183900781	1.002
17	143394	23.750183900781	1.002
17	143977	23.770183900781	1.002
17	144172	23.790183900781	1.002
17	144300	23.810183900781	1.002
17	144310	23.830183900781	1.002
17	144323	23.850183900781	1.002
17	144890	23.870183900781	1.002
17	145085	23.890183900781	1.002
17	145213	23.910183900781	1.002
17	145223	23.930183900781	1.002
17	145236	23.950183900781	1.002
17	145808	23.970183900781	1.002
17	146003	23.990183900781	1.002
17	146131	24.010183900781	1.002
17	146141	24.030183900781	1.002
17	146154	24.050183900781	1.002
17	146699	24.070183900781	1.002
17	146894	24.090183900781	1.002
17	147022	24.110183900781	1.002
17	147032	24.130183900781	1.002
17	147045	24.150183900781	1.002
17	147617	24.170183900781	1.002
17	147812	24.190183900781	1.002
17	147940	24.210183900781	1.002
17	147950	24.230183900781	1.002
17	147963	24.250183900781	1.002
17	148535	24.270183900781	1.002
17	148730	24.290183900781	1.002
17	148858	24.310183900781	1.002
17	148868	24.330183900781	1.002
17	148881	24.350183900781	1.002
17	149469	24.370183900781	1.002
17	149664	24.390183900781	1.002
17	149792	24.410183900781	1.002
17	149802	24.430183900781	1.002
17	149815	24.450183900781	1.002
17	150376	24.470183900781	1.002
17	150571	24.490183900781	1.002
17	150699	24.510183900781	1.002
17	150709	24.530183900781	1.002
17	150722	24.550183900781	1.002
17	151305	24.570183900781	1.002
17	151500	24.590183900781	1.002
17	151628	24.610183900781	1.002
17	151638	24.630183900781	1.002
17	151651	24.650183900781	1.002
17	152223	24.670183900781	1.002
17	152418	24.690183900781	1.002
17	152546	24.710183900781	1.002
17	152556	24.730183900781	1.002
17	152569	24.750183900781	1.002
17	153125	24.770183900781	1.002
17	153320	24.790183900781	1.002
17	153448	24.810183900781	1.002
17	153458	24.830183900781	1.002
17	153471	24.850183900781	1.002
17	154027	24.870183900781	1.002
17	154222	24.890183900781	1.002
17	154350	24.910183900781	1.002
17	154360	24.930183900781	1.002
17	154373	24.950183900781	1.002
17	154924	24.970183900781	1.002
17	155119	24.990183900781	1.002
17	155247	25.010183900781	1.002
17	155257	25.030183900781	1.002
17	155270	25.050183900781	1.002
17	155847	25.070183900781	1.002
17	156042	25.090183900781	1.002
17	156170	25.110183900781	1.002
17	156180	25.130183900781	1.002
17	156193	25.150183900781	1.002
17	156733	25.170183900781	1.002
17	156928	25.190183900781	1.002
17	157056	25.210183900781	1.002
17	157066	25.230183900781	1.002
17	157079	25.250183900781	1.002
17	157662	25.270183900781	1.002
17	157857	25.290183900781	1.002
17	157985	25.310183900781	1.002
17	157995	25.330183900781	1.002
17	158008	25.350183900781	1.002
17	158559	25.370183900781	1.002
17	158754	25.390183900781	1.002
17	158882	25.410183900781	1.002
17	158892	25.430183900781	1.002
17	158905	25.450183900781	1.002
17	159477	25.470183900781	1.002
17	159672	25.490183900781	1.002
17	159800	25.510183900781	1.002
17	159810	25.530183900781	1.002
17	159823	25.550183900781	1.002
17	160401	25.570183900781	1.002
17	160596	25.590183900781	1.002
17	160724	25.610183900781	1.002
17	160734	25.630183900781	1.002
17	160747	25.650183900781	1.002
17	161303	25.670183900781	1.002
17	161498	25.690183900781	1.002
17	161626	25.710183900781	1.002
17	161636	25.730183900781	1.002
17	161649	25.750183900781	1.002
17	162205	25.770183900781	1.002
17	162400	25.790183900781	1.002
17	162528	25.810183900781	1.002
17	162538	25.830183900781	1.002
17	162551	25.850183900781	1.002
17	163112	25.870183900781	1.002
17	163307	25.890183900781	1.002
17	163435	25.910183900781	1.002
17	163445	25.930183900781	1.002
17	163458	25.950183900781	1.002
17	164009	25.970183900781	1.002
17	164204	25.990183900781	1.002
17	164332	26.010183900781	1.002
17	164342	26.030183900781	1.002
17	164355	26.050183900781	1.002
17	164922	26.070183900781	1.002
17	165117	26.090183900781	1.002
17	165245	26.110183900781	1.002
17	165255	26.130183900781	1.002
17	165268	26.150183900781	1.002
17	165829	26.170183900781	1.002
17	166024	26.190183900781	1.002
17	166152	26.210183900781	1.002
17	166162	26.230183900781	1.002
17	166175	26.250183900781	1.002
17	166726	26.270183900781	1.002
17	166921	26.290183900781	1.002
17	167049	26.310183900781	1.002
17	167059	26.330183900781	1.002
17	167072	26.350183900781	1.002
17	167623	26.370183900781	1.002
17	167818	26.390183900781	1.002
17	167946	26.410183900781	1.002
17	167956	26.430183900781	1.002
17	167969	26.450183900781	1.002
17	168520	26.470183900781	1.002
17	168715	26.490183900781	1.002
17	168843	26.510183900781	1.002
17	168853	26.530183900781	1.002
17	168866	26.550183900781	1.002
17	169460	26.570183900781	1.002
17	169655	26.590183900781	1.002
17	169783	26.610183900781	1.002
17	169793	26.630183900781	1.002
17	169806	26.650183900781	1.002
17	170362	26.670183900781	1.002
17	170557	26.690183900781	1.002
17	170685	26.710183900781	1.002
17	170695	26.730183900781	1.002
17	170708	26.750183900781	1.002
17	171269	26.770183900781	1.002
17	171464	26.790183900781	1.002
17	171592	26.810183900781	1.002
17	171602	26.830183900781	1.002
17	171615	26.850183900781	1.002
17	172198	26.870183900781	1.002
17	172393	26.890183900781	1.002
17	172521	26.910183900781	1.002
17	172531	26.930183900781	1.002
17	172544	26.950183900781	1.002
17	173084	26.970183900781	1.002
17	173279	26.990183900781	1.002
17	173407	27.010183900781	1.002
17	173417	27.030183900781	1.002
17	173430	27.050183900781	1.002
17	173997	27.070183900781	1.002
17	174192	27.090183900781	1.002
17	174320	27.110183900781	1.002
17	174330	27.130183900781	1.002
17	174343	27.150183900781	1.002
17	174877	27.170183900781	1.002
17	175072	27.190183900781	1.002
17	175200	27.210183900781	1.002
17	175210	27.230183900781	1.002
17	175223	27.250183900781	1.002
17	175795	27.270183900781	1.002
17	175990	27.290183900781	1.002
17	176118	27.310183900781	1.002
17	176128	27.330183900781	1.002
17	176141	27.350183900781	1.002
17	176692	27.370183900781	1.002
17	176887	27.390183900781	1.002
17	177015	27.410183900781	1.002
17	177025	27.430183900781	1.002
17	177038	27.450183900781	1.002
17	177626	27.470183900781	1.002
17	177821	27.490183900781	1.002
17	177949	27.510183900781	1.002
17	177959	27.530183900781	1.002
17	177972	27.550183900781	1.002
17	178528	27.570183900781	1.002
17	178723	27.590183900781	1.002
17	178851	27.610183900781	1.002
17	178861	27.630183900781	1.002
17	178874	27.650183900781	1.002
17	179430	27.670183900781	1.002
17	179625	27.690183900781	1.002
17	179753	27.710183900781	1.002
17	179763	27.730183900781	1.002
17	179776	27.750183900781	1.002
17	180321	27.770183900781	1.002
17	180516	27.790183900781	1.002
17	180644	27.810183900781	1.002
17	180654	27.830183900781	1.002
17	180667	27.850183900781	1.002
17	181212	27.870183900781	1.002
17	181407	27.890183900781	1.002
17	181535	27.910183900781	1.002
17	181545	27.930183900781	1.002
17	181558	27.950183900781	1.002
17	182125	27.970183900781	1.002
17	182320	27.990183900781	1.002
17	182448	28.010183900781	1.002
17	182458	28.030183900781	1.002
17	182471	28.050183900781	1.002
17	183022	28.070183900781	1.002
17	183217	28.090183900781	1.002
17	183345	28.110183900781	1.002
17	183355	28.130183900781	1.002
17	183368	28.150183900781	1.002
17	183935	28.170183900781	1.002
17	184130	28.190183900781	1.002
17	184258	28.210183900781	1.002
17	184268	28.230183900781	1.002
17	184281	28.250183900781	1.002
17	184832	28.270183900781	1.002
17	185027	28.290183900781	1.002
17	185155	28.310183900781	1.002
17	185165	28.330183900781	1.002
17	185178	28.350183900781	1.002
17	185734	28.370183900781	1.002
17	185929	28.390183900781	1.002
17	186057	28.410183900781	1.002
17	186067	28.430183900781	1.002
17	186080	28.450183900781	1.002
17	186658	28.470183900781	1.002
17	186853	28.490183900781	1.002
17	186981	28.510183900781	1.002
17	186991	28.530183900781	1.002
17	187004	28.550183900781	1.002
17	187560	28.570183900781	1.002
17	187755	28.590183900781	1.002
17	187883	28.610183900781	1.002
17	187893	28.630183900781	1.002
17	187906	28.650183900781	1.002
17	188457	28.670183900781	1.002
17	188652	28.690183900781	1.002
17	188780	28.710183900781	1.002
17	188790	28.730183900781	1.002
17	188803	28.750183900781	1.002
17	189364	28.770183900781	1.002
17	189559	28.790183900781	1.002
17	189687	28.810183900781	1.002
17	189697	28.830183900781	1.002
17	189710	28.850183900781	1.002
17	190293	28.870183900781	1.002
17	190488	28.890183900781	1.002
17	190616	28.910183900781	1.002
17	190626	28.930183900781	1.002
17	190639	28.950183900781	1.002
17	191195	28.970183900781	1.002
17	191390	28.990183900781	1.002
17	191518	29.010183900781	1.002
17	191528	29.030183900781	1.002
17	191541	29.050183900781	1.002
17	192086	29.070183900781	1.002
17	192281	29.090183900781	1.002
17	192409	29.110183900781	1.002
17	192419	29.130183900781	1.002
17	192432	29.150183900781	1.002
17	192988	29.170183900781	1.002
17	193183	29.190183900781	1.002
17	193311	29.210183900781	1.002
17	193321	29.230183900781	1.002
17	193334	29.250183900781	1.002
17	193912	29.270183900781	1.002
17	194107	29.290183900781	1.002
17	194235	29.310183900781	1.002
17	194245	29.330183900781	1.002
17	194258	29.350183900781	1.002
17	194830	29.370183900781	1.002
17	195025	29.390183900781	1.002
17	195153	29.410183900781	1.002
17	195163	29.430183900781	1.002
17	195176	29.450183900781	1.002
17	195732	29.470183900781	1.002
17	195927	29.490183900781	1.002
17	196055	29.510183900781	1.002
17	196065	29.530183900781	1.002
17	196078	29.550183900781	1.002
17	196682	29.570183900781	1.002
17	196877	29.590183900781	1.002
17	197005	29.610183900781	1.002
17	197015	29.630183900781	1.002
17	197028	29.650183900781	1.002
17	197595	29.670183900781	1.002
17	197790	29.690183900781	1.002
17	197918	29.710183900781	1.002
17	197928	29.730183900781	1.002
17	197941	29.750183900781	1.002
17	198497	29.770183900781	1.002
17	198692	29.790183900781	1.002
17	198820	29.810183900781	1.002
17	198830	29.830183900781	1.002
17	198843	29.850183900781	1.002
17	199415	29.870183900781	1.002
17	199610	29.890183900781	1.002
17	199738	29.910183900781	1.002
17	199748	29.930183900781	1.002
17	199761	29.950183900781	1.002
17	200317	29.970183900781	1.002
17	200512	29.990183900781	1.002
17	200640	30.010183900781	1.002
17	200650	30.030183900781	1.002
17	200663	30.050183900781	1.002
17	201224	30.070183900781	1.002
17	201419	30.090183900781	1.002
17	201547	30.110183900781	1.002
17	201557	30.130183900781	1.002
17	201570	30.150183900781	1.002
17	202126	30.170183900781	1.002
17	202321	30.190183900781	1.002
17	202449	30.210183900781	1.002
17	202459	30.230183900781	1.002
17	202472	30.250183900781	1.002
17	203044	30.270183900781	1.002
17	203239	30.290183900781	1.002
17	203367	30.310183900781	1.002
17	203377	30.330183900781	1.002
17	203390	30.350183900781	1.002
17	203946	30.370183900781	1.002
17	204141	30.390183900781	1.002
17	204269	30.410183900781	1.002
17	204279	30.430183900781	1.002
17	204292	30.450183900781	1.002
17	204842	30.470183900781	1.002
17	205037	30.490183900781	1.002
17	205165	30.510183900781	1.002
17	205175	30.530183900781	1.002
17	205188	30.550183900781	1.002
17	205750	30.570183900781	1.002
17	205945	30.590183900781	1.002
17	206073	30.610183900781	1.002
17	206083	30.630183900781	1.002
17	206096	30.650183900781	1.002
17	206663	30.670183900781	1.002
17	206858	30.690183900781	1.002
17	206986	30.710183900781	1.002
17	206996	30.730183900781	1.002
17	207009	30.750183900781	1.002
17	207559	30.770183900781	1.002
17	207754	30.790183900781	1.002
17	207882	30.810183900781	1.002
17	207892	30.830183900781	1.002
17	207905	30.850183900781	1.002
17	208472	30.870183900781	1.002
17	208667	30.890183900781	1.002
17	208795	30.910183900781	1.002
17	208805	30.930183900781	1.002
17	208818	30.950183900781	1.002
17	209369	30.970183900781	1.002
17	209564	30.990183900781	1.002
17	209692	31.010183900781	1.002
17	209702	31.030183900781	1.002
17	209715	31.050183900781	1.002
17	210260	31.070183900781	1.002
17	210455	31.090183900781	1.002
17	210583	31.110183900781	1.002
17	210593	31.130183900781	1.002
17	210606	31.150183900781	1.002
17	211167	31.170183900781	1.002
17	211362	31.190183900781	1.002
17	211490	31.210183900781	1.002
17	211500	31.230183900781	1.002
17	211513	31.250183900781	1.002
17	212090	31.270183900781	1.002
17	212285	31.290183900781	1.002
17	212413	31.310183900781	1.002
17	212423	31.330183900781	1.002
17	212436	31.350183900781	1.002
17	212992	31.370183900781	1.002
17	213187	31.390183900781	1.002
17	213315	31.410183900781	1.002
17	213325	31.430183900781	1.002
17	213338	31.450183900781	1.002
17	213905	31.470183900781	1.002
17	214100	31.490183900781	1.002
17	214228	31.510183900781	1.002
17	214238	31.530183900781	1.002
17	214251	31.550183900781	1.002
17	214818	31.570183900781	1.002
17	215013	31.590183900781	1.002
17	215141	31.610183900781	1.002
17	215151	31.630183900781	1.002
17	215164	31.650183900781	1.002
17	215698	31.670183900781	1.002
17	215893	31.690183900781	1.002
17	216021	31.710183900781	1.002
17	216031	31.730183900781	1.002
17	216044	31.750183900781	1.002
17	216632	31.770183900781	1.002
17	216827	31.790183900781	1.002
17	216955	31.810183900781	1.002
17	216965	31.830183900781	1.002
17	216978	31.850183900781	1.002
17	217534	31.870183900781	1.002
17	217729	31.890183900781	1.002
17	217857	31.910183900781	1.002
17	217867	31.930183900781	1.002
17	217880	31.950183900781	1.002
17	218441	31.970183900781	1.002
17	218636	31.990183900781	1.002
17	218764	32.010183900781	1.002
17	218774	32.030183900781	1.002
17	218787	32.050183900781	1.002
17	219343	32.070183900781	1.002
17	219538	32.090183900781	1.002
17	219666	32.110183900781	1.002
17	219676	32.130183900781	1.002
17	219689	32.150183900781	1.002
17	220239	32.170183900781	1.002
17	220434	32.190183900781	1.002
17	220562	32.210183900781	1.002
17	220572	32.230183900781	1.002
17	220585	32.250183900781	1.002
17	221114	32.270183900781	1.002
17	221309	32.290183900781	1.002
17	221437	32.310183900781	1.002
17	221447	32.330183900781	1.002
17	221460	32.350183900781	1.002
17	222010	32.370183900781	1.002
17	222205	32.390183900781	1.002
17	222333	32.410183900781	1.002
17	222343	32.430183900781	1.002
17	222356	32.450183900781	1.002
17	222902	32.470183900781	1.002
17	223097	32.490183900781	1.002
17	223225	32.510183900781	1.002
17	223235	32.530183900781	1.002
17	223248	32.550183900781	1.002
17	223803	32.570183900781	1.002
17	223998	32.590183900781	1.002
17	224126	32.610183900781	1.002
17	224136	32.630183900781	1.002
17	224149	32.650183900781	1.002
17	224727	32.670183900781	1.002
17	224922	32.690183900781	1.002
17	225050	32.710183900781	1.002
17	225060	32.730183900781	1.002
17	225073	32.750183900781	1.002
17	225629	32.770183900781	1.002
17	225824	32.790183900781	1.002
17	225952	32.810183900781	1.002
17	225962	32.830183900781	1.002
17	225975	32.850183900781	1.002
17	226531	32.870183900781	1.002
17	226726	32.890183900781	1.002
17	226854	32.910183900781	1.002
17	226864	32.930183900781	1.002
17	226877	32.950183900781	1.002
17	227428	32.970183900781	1.002
17	227623	32.990183900781	1.002
17	227751	33.010183900781	1.002
17	227761	33.030183900781	1.002
17	227774	33.050183900781	1.002
17	228357	33.070183900781	1.002
17	228552	33.090183900781	1.002
17	228680	33.110183900781	1.002
17	228690	33.130183900781	1.002
17	228703	33.150183900781	1.002
17	229259	33.170183900781	1.002
17	229454	33.190183900781	1.002
17	229582	33.210183900781	1.002
17	229592	33.230183900781	1.002
17	229605	33.250183900781	1.002
17	230172	33.270183900781	1.002
17	230367	33.290183900781	1.002
17	230495	33.310183900781	1.002
17	230505	33.330183900781	1.002
17	230518	33.350183900781	1.002
17	231074	33.370183900781	1.002
17	231269	33.390183900781	1.002
17	231397	33.410183900781	1.002
17	231407	33.430183900781	1.002
17	231420	33.450183900781	1.002
17	231982	33.470183900781	1.002
17	232177	33.490183900781	1.002
17	232305	33.510183900781	1.002
17	232315	33.530183900781	1.002
17	232328	33.550183900781	1.002
17	232895	33.570183900781	1.002
17	233090	33.590183900781	1.002
17	233218	33.610183900781	1.002
17	233228	33.630183900781	1.002
17	233241	33.650183900781	1.002
17	233813	33.670183900781	1.002
17	234008	33.690183900781	1.002
17	234136	33.710183900781	1.002
17	234146	33.730183900781	1.002
17	234159	33.750183900781	1.002
17	234737	33.770183900781	1.002
17	234932	33.790183900781	1.002
17	235060	33.810183900781	1.002
17	235070	33.830183900781	1.002
17	235083	33.850183900781	1.002
17	235650	33.870183900781	1.002
17	235845	33.890183900781	1.002
17	235973	33.910183900781	1.002
17	235983	33.930183900781	1.002
17	235996	33.950183900781	1.002
17	236568	33.970183900781	1.002
17	236763	33.990183900781	1.002
17	236891	34.010183900781	1.002
17	236901	34.030183900781	1.002
17	236914	34.050183900781	1.002
17	237465	34.070183900781	1.002
17	237660	34.090183900781	1.002
17	237788	34.110183900781	1.002
17	237798	34.130183900781	1.002
17	237811	34.150183900781	1.002
17	238361	34.170183900781	1.002
17	238556	34.190183900781	1.002
17	238684	34.210183900781	1.002
17	238694	34.230183900781	1.002
17	238707	34.250183900781	1.002
17	239263	34.270183900781	1.002
17	239458	34.290183900781	1.002
17	239586	34.310183900781	1.002
17	239596	34.330183900781	1.002
17	239609	34.350183900781	1.002
17	240171	34.370183900781	1.002
17	240366	34.390183900781	1.002
17	240494	34.410183900781	1.002
17	240504	34.430183900781	1.002
17	240517	34.450183900781	1.002
17	241062	34.470183900781	1.002
17	241257	34.490183900781	1.002
17	241385	34.510183900781	1.002
17	241395	34.530183900781	1.002
17	241408	34.550183900781	1.002
17	241964	34.570183900781	1.002
17	242159	34.590183900781	1.002
17	242287	34.610183900781	1.002
17	242297	34.630183900781	1.002
17	242310	34.650183900781	1.002
17	242877	34.670183900781	1.002
17	243072	34.690183900781	1.002
17	243200	34.710183900781	1.002
17	243210	34.730183900781	1.002
17	243223	34.750183900781	1.002
17	243763	34.770183900781	1.002
17	243958	34.790183900781	1.002
17	244086	34.810183900781	1.002
17	244096	34.830183900781	1.002
17	244109	34.850183900781	1.002
17	244670	34.870183900781	1.002
17	244865	34.890183900781	1.002
17	244993	34.910183900781	1.002
17	245003	34.930183900781	1.002
17	245016	34.950183900781	1.002
17	245567	34.970183900781	1.002
17	245762	34.990183900781	1.002
17	245890	35.010183900781	1.002
17	245900	35.030183900781	1.002
17	245913	35.050183900781	1.002
17	246485	35.070183900781	1.002
17	246680	35.090183900781	1.002
17	246808	35.110183900781	1.002
17	246818	35.130183900781	1.002
17	246831	35.150183900781	1.002
17	247376	35.170183900781	1.002
17	247571	35.190183900781	1.002
17	247699	35.210183900781	1.002
17	247709	35.230183900781	1.002
17	247722	35.250183900781	1.002
17	248316	35.270183900781	1.002
17	248511	35.290183900781	1.002
17	248639	35.310183900781	1.002
17	248649	35.330183900781	1.002
17	248662	35.350183900781	1.002
17	249250	35.370183900781	1.002
17	249445	35.390183900781	1.002
17	249573	35.410183900781	1.002
17	249583	35.430183900781	1.002
17	249596	35.450183900781	1.002
17	250136	35.470183900781	1.002
17	250331	35.490183900781	1.002
17	250459	35.510183900781	1.002
17	250469	35.530183900781	1.002
17	250482	35.550183900781	1.002
17	251043	35.570183900781	1.002
17	251238	35.590183900781	1.002
17	251366	35.610183900781	1.002
17	251376	35.630183900781	1.002
17	251389	35.650183900781	1.002
17	251961	35.670183900781	1.002
17	252156	35.690183900781	1.002
17	252284	35.710183900781	1.002
17	252294	35.730183900781	1.002
17	252307	35.750183900781	1.002
17	252869	35.770183900781	1.002
17	253064	35.790183900781	1.002
17	253192	35.810183900781	1.002
17	253202	35.830183900781	1.002
17	253215	35.850183900781	1.002
17	253776	35.870183900781	1.002
17	253971	35.890183900781	1.002
17	254099	35.910183900781	1.002
17	254109	35.930183900781	1.002
17	254122	35.950183900781	1.002
17	254678	35.970183900781	1.002
17	254873	35.990183900781	1.002
17	255001	36.010183900781	1.002
17	255011	36.030183900781	1.002
17	255024	36.050183900781	1.002
17	255570	36.070183900781	1.002
17	255765	36.090183900781	1.002
17	255893	36.110183900781	1.002
17	255903	36.130183900781	1.002
17	255916	36.150183900781	1.002
17	256494	36.170183900781	1.002
17	256689	36.190183900781	1.002
17	256817	36.210183900781	1.002
17	256827	36.230183900781	1.002
17	256840	36.250183900781	1.002
17	257401	36.270183900781	1.002
17	257596	36.290183900781	1.002
17	257724	36.310183900781	1.002
17	257734	36.330183900781	1.002
17	257747	36.350183900781	1.002
17	258330	36.370183900781	1.002
17	258525	36.390183900781	1.002
17	258653	36.410183900781	1.002
17	258663	36.430183900781	1.002
17	258676	36.450183900781	1.002
17	259237	36.470183900781	1.002
17	259432	36.490183900781	1.002
17	259560	36.510183900781	1.002
17	259570	36.530183900781	1.002
17	259583	36.550183900781	1.002
17	260139	36.570183900781	1.002
17	260334	36.590183900781	1.002
17	260462	36.610183900781	1.002
17	260472	36.630183900781	1.002
17	260485	36.650183900781	1.002
17	261025	36.670183900781	1.002
17	261220	36.690183900781	1.002
17	261348	36.710183900781	1.002
17	261358	36.730183900781	1.002
17	261371	36.750183900781	1.002
17	261911	36.770183900781	1.002
17	262106	36.790183900781	1.002
17	262234	36.810183900781	1.002
17	262244	36.830183900781	1.002
17	262257	36.850183900781	1.002
17	262829	36.870183900781	1.002
17	263024	36.890183900781	1.002
17	263152	36.910183900781	1.002
17	263162	36.930183900781	1.002
17	263175	36.950183900781	1.002
17	263726	36.970183900781	1.002
17	263921	36.990183900781	1.002
17	264049	37.010183900781	1.002
17	264059	37.030183900781	1.002
17	264072	37.050183900781	1.002
17	264644	37.070183900781	1.002
17	264839	37.090183900781	1.002
17	264967	37.110183900781	1.002
17	264977	37.130183900781	1.002
17	264990	37.150183900781	1.002
17	265540	37.170183900781	1.002
17	265735	37.190183900781	1.002
17	265863	37.210183900781	1.002
17	265873	37.230183900781	1.002
17	265886	37.250183900781	1.002
17	266447	37.270183900781	1.002
17	266642	37.290183900781	1.002
17	266770	37.310183900781	1.002
17	266780	37.330183900781	1.002
17	266793	37.350183900781	1.002
17	267365	37.370183900781	1.002
17	267560	37.390183900781	1.002
17	267688	37.410183900781	1.002
17	267698	37.430183900781	1.002
17	267711	37.450183900781	1.002
17	268283	37.470183900781	1.002
17	268478	37.490183900781	1.002
17	268606	37.510183900781	1.002
17	268616	37.530183900781	1.002
17	268629	37.550183900781	1.002
17	269190	37.570183900781	1.002
17	269385	37.590183900781	1.002
17	269513	37.610183900781	1.002
17	269523	37.630183900781	1.002
17	269536	37.650183900781	1.002
17	270119	37.670183900781	1.002
17	270314	37.690183900781	1.002
17	270442	37.710183900781	1.002
17	270452	37.730183900781	1.002
17	270465	37.750183900781	1.002
17	271015	37.770183900781	1.002
17	271210	37.790183900781	1.002
17	271338	37.810183900781	1.002
17	271348	37.830183900781	1.002
17	271361	37.850183900781	1.002
17	271912	37.870183900781	1.002
17	272107	37.890183900781	1.002
17	272235	37.910183900781	1.002
17	272245	37.930183900781	1.002
17	272258	37.950183900781	1.002
17	272814	37.970183900781	1.002
17	273009	37.990183900781	1.002
17	273137	38.010183900781	1.002
17	273147	38.030183900781	1.002
17	273160	38.050183900781	1.002
17	273727	38.070183900781	1.002
17	273922	38.090183900781	1.002
17	274050	38.110183900781	1.002
17	274060	38.130183900781	1.002
17	274073	38.150183900781	1.002
17	274634	38.170183900781	1.002
17	274829	38.190183900781	1.002
17	274957	38.210183900781	1.002
17	274967	38.230183900781	1.002
17	274980	38.250183900781	1.002
17	275547	38.270183900781	1.002
17	275742	38.290183900781	1.002
17	275870	38.310183900781	1.002
17	275880	38.330183900781	1.002
17	275893	38.350183900781	1.002
17	276476	38.370183900781	1.002
17	276671	38.390183900781	1.002
17	276799	38.410183900781	1.002
17	276809	38.430183900781	1.002
17	276822	38.450183900781	1.002
17	277383	38.470183900781	1.002
17	277578	38.490183900781	1.002
17	277706	38.510183900781	1.002
17	277716	38.530183900781	1.002
17	277729	38.550183900781	1.002
17	278285	38.570183900781	1.002
17	278480	38.590183900781	1.002
17	278608	38.610183900781	1.002
17	278618	38.630183900781	1.002
17	278631	38.650183900781	1.002
17	279193	38.670183900781	1.002
17	279388	38.690183900781	1.002
17	279516	38.710183900781	1.002
17	279526	38.730183900781	1.002
17	279539	38.750183900781	1.002
17	280084	38.770183900781	1.002
17	280279	38.790183900781	1.002
17	280407	38.810183900781	1.002
17	280417	38.830183900781	1.002
17	280430	38.850183900781	1.002
17	280981	38.870183900781	1.002
17	281176	38.890183900781	1.002
17	281304	38.910183900781	1.002
17	281314	38.930183900781	1.002
17	281327	38.950183900781	1.002
17	281878	38.970183900781	1.002
17	282073	38.990183900781	1.002
17	282201	39.010183900781	1.002
17	282211	39.030183900781	1.002
17	282224	39.050183900781	1.002
17	282796	39.070183900781	1.002
17	282991	39.090183900781	1.002
17	283119	39.110183900781	1.002
17	283129	39.130183900781	1.002
17	283142	39.150183900781	1.002
17	283704	39.170183900781	1.002
17	283899	39.190183900781	1.002
17	284027	39.210183900781	1.002
17	284037	39.230183900781	1.002
17	284050	39.250183900781	1.002
17	284622	39.270183900781	1.002
17	284817	39.290183900781	1.002
17	284945	39.310183900781	1.002
17	284955	39.330183900781	1.002
17	284968	39.350183900781	1.002
17	285513	39.370183900781	1.002
17	285708	39.390183900781	1.002
17	285836	39.410183900781	1.002
17	285846	39.430183900781	1.002
17	285859	39.450183900781	1.002
17	286425	39.470183900781	1.002
17	286620	39.490183900781	1.002
17	286748	39.510183900781	1.002
17	286758	39.530183900781	1.002
17	286771	39.550183900781	1.002
17	287338	39.570183900781	1.002
17	287533	39.590183900781	1.002
17	287661	39.610183900781	1.002
17	287671	39.630183900781	1.002
17	287684	39.650183900781	1.002
17	288245	39.670183900781	1.002
17	288440	39.690183900781	1.002
17	288568	39.710183900781	1.002
17	288578	39.730183900781	1.002
17	288591	39.750183900781	1.002
17	289158	39.770183900781	1.002
17	289353	39.790183900781	1.002
17	289481	39.810183900781	1.002
17	289491	39.830183900781	1.002
17	289504	39.850183900781	1.002
17	290082	39.870183900781	1.002
17	290277	39.890183900781	1.002
17	290405	39.910183900781	1.002
17	290415	39.930183900781	1.002
17	290428	39.950183900781	1.002
17	290984	39.970183900781	1.002
17	291179	39.990183900781	1.002
17	291307	40.010183900781	1.002
17	291317	40.030183900781	1.002
17	291330	40.050183900781	1.002
17	291902	40.070183900781	1.002
17	292097	40.090183900781	1.002
17	292225	40.110183900781	1.002
17	292235	40.130183900781	1.002
17	292248	40.150183900781	1.002
17	292831	40.170183900781	1.002
17	293026	40.190183900781	1.002
17	293154	40.210183900781	1.002
17	293164	40.230183900781	1.002
17	293177	40.250183900781	1.002
17	293733	40.270183900781	1.002
17	293928	40.290183900781	1.002
17	294056	40.310183900781	1.002
17	294066	40.330183900781	1.002
17	294079	40.350183900781	1.002
17	294646	40.370183900781	1.002
17	294841	40.390183900781	1.002
17	294969	40.410183900781	1.002
17	294979	40.430183900781	1.002
17	294992	40.450183900781	1.002
17	295543	40.470183900781	1.002
17	295738	40.490183900781	1.002
17	295866	40.510183900781	1.002
17	295876	40.530183900781	1.002
17	295889	40.550183900781	1.002
17	296456	40.570183900781	1.002
17	296651	40.590183900781	1.002
17	296779	40.610183900781	1.002
17	296789	40.630183900781	1.002
17	296802	40.650183900781	1.002
17	297358	40.670183900781	1.002
17	297553	40.690183900781	1.002
17	297681	40.710183900781	1.002
17	297691	40.730183900781	1.002
17	297704	40.750183900781	1.002
17	298265	40.770183900781	1.002
17	298460	40.790183900781	1.002
17	298588	40.810183900781	1.002
17	298598	40.830183900781	1.002
17	298611	40.850183900781	1.002
17	299178	40.870183900781	1.002
17	299373	40.890183900781	1.002
17	299501	40.910183900781	1.002
17	299511	40.930183900781	1.002
17	299524	40.950183900781	1.002
17	300070	40.970183900781	1.002
17	300265	40.990183900781	1.002
17	300393	41.010183900781	1.002
17	300403	41.030183900781	1.002
17	300416	41.050183900781	1.002
17	300967	41.070183900781	1.002
17	301162	41.090183900781	1.002
17	301290	41.110183900781	1.002
17	301300	41.130183900781	1.002
17	301313	41.150183900781	1.002
17	301858	41.170183900781	1.002
17	302053	41.190183900781	1.002
17	302181	41.210183900781	1.002
17	302191	41.230183900781	1.002
17	302204	41.250183900781	1.002
17	302771	41.270183900781	1.002
17	302966	41.290183900781	1.002
17	303094	41.310183900781	1.002
17	303104	41.330183900781	1.002
17	303117	41.350183900781	1.002
17	303684	41.370183900781	1.002
17	303879	41.390183900781	1.002
17	304007	41.410183900781	1.002
17	304017	41.430183900781	1.002
17	304030	41.450183900781	1.002
17	304586	41.470183900781	1.002
17	304781	41.490183900781	1.002
17	304909	41.510183900781	1.002
17	304919	41.530183900781	1.002
17	304932	41.550183900781	1.002
17	305504	41.570183900781	1.002
17	305699	41.590183900781	1.002
17	305827	41.610183900781	1.002
17	305837	41.630183900781	1.002
17	305850	41.650183900781	1.002
17	306406	41.670183900781	1.002
17	306601	41.690183900781	1.002
17	306729	41.710183900781	1.002
17	306739	41.730183900781	1.002
17	306752	41.750183900781	1.002
17	307319	41.770183900781	1.002
17	307514	41.790183900781	1.002
17	307642	41.810183900781	1.002
17	307652	41.830183900781	1.002
17	307665	41.850183900781	1.002
17	308232	41.870183900781	1.002
17	308427	41.890183900781	1.002
17	308555	41.910183900781	1.002
17	308565	41.930183900781	1.002
17	308578	41.950183900781	1.002
17	309139	41.970183900781	1.002
17	309334	41.990183900781	1.002
17	309462	42.010183900781	1.002
17	309472	42.030183900781	1.002
17	309485	42.050183900781	1.002
17	310041	42.070183900781	1.002
17	310236	42.090183900781	1.002
17	310364	42.110183900781	1.002
17	310374	42.130183900781	1.002
17	310387	42.150183900781	1.002
17	310943	42.170183900781	1.002
17	311138	42.190183900781	1.002
17	311266	42.210183900781	1.002
17	311276	42.230183900781	1.002
17	311289	42.250183900781	1.002
17	311829	42.270183900781	1.002
17	312024	42.290183900781	1.002
17	312152	42.310183900781	1.002
17	312162	42.330183900781	1.002
17	312175	42.350183900781	1.002
17	312742	42.370183900781	1.002
17	312937	42.390183900781	1.002
17	313065	42.410183900781	1.002
17	313075	42.430183900781	1.002
17	313088	42.450183900781	1.002
17	313649	42.470183900781	1.002
17	313844	42.490183900781	1.002
17	313972	42.510183900781	1.002
17	313982	42.530183900781	1.002
17	313995	42.550183900781	1.002
17	314562	42.570183900781	1.002
17	314757	42.590183900781	1.002
17	314885	42.610183900781	1.002
17	314895	42.630183900781	1.002
17	314908	42.650183900781	1.002
17	315480	42.670183900781	1.002
17	315675	42.690183900781	1.002
17	315803	42.710183900781	1.002
17	315813	42.730183900781	1.002
17	315826	42.750183900781	1.002
17	316371	42.770183900781	1.002
17	316566	42.790183900781	1.002
17	316694	42.810183900781	1.002
17	316704	42.830183900781	1.002
17	316717	42.850183900781	1.002
17	317273	42.870183900781	1.002
17	317468	42.890183900781	1.002
17	317596	42.910183900781	1.002
17	317606	42.930183900781	1.002
17	317619	42.950183900781	1.002
17	318191	42.970183900781	1.002
17	318386	42.990183900781	1.002
17	318514	43.010183900781	1.002
17	318524	43.030183900781	1.002
17	318537	43.050183900781	1.002
17	319099	43.070183900781	1.002
17	319294	43.090183900781	1.002
17	319422	43.110183900781	1.002
17	319432	43.130183900781	1.002
17	319445	43.150183900781	1.002
17	320001	43.170183900781	1.002
17	320196	43.190183900781	1.002
17	320324	43.210183900781	1.002
17	320334	43.230183900781	1.002
17	320347	43.250183900781	1.002
17	320892	43.270183900781	1.002
17	321087	43.290183900781	1.002
17	321215	43.310183900781	1.002
17	321225	43.330183900781	1.002
17	321238	43.350183900781	1.002
17	321810	43.370183900781	1.002
17	322005	43.390183900781	1.002
17	322133	43.410183900781	1.002
17	322143	43.430183900781	1.002
17	322156	43.450183900781	1.002
17	322717	43.470183900781	1.002
17	322912	43.490183900781	1.002
17	323040	43.510183900781	1.002
17	323050	43.530183900781	1.002
17	323063	43.550183900781	1.002
17	323592	43.570183900781	1.002
17	323787	43.590183900781	1.002
17	323915	43.610183900781	1.002
17	323925	43.630183900781	1.002
17	323938	43.650183900781	1.002
17	324499	43.670183900781	1.002
17	324694	43.690183900781	1.002
17	324822	43.710183900781	1.002
17	324832	43.730183900781	1.002
17	324845	43.750183900781	1.002
17	325406	43.770183900781	1.002
17	325601	43.790183900781	1.002
17	325729	43.810183900781	1.002
17	325739	43.830183900781	1.002
17	325752	43.850183900781	1.002
17	326324	43.870183900781	1.002
17	326519	43.890183900781	1.002
17	326647	43.910183900781	1.002
17	326657	43.930183900781	1.002
17	326670	43.950183900781	1.002
17	327247	43.970183900781	1.002
17	327442	43.990183900781	1.002
17	327570	44.010183900781	1.002
17	327580	44.030183900781	1.002
17	327593	44.050183900781	1.002
17	328176	44.070183900781	1.002
17	328371	44.090183900781	1.002
17	328499	44.110183900781	1.002
17	328509	44.130183900781	1.002
17	328522	44.150183900781	1.002
17	329083	44.170183900781	1.002
17	329278	44.190183900781	1.002
17	329406	44.210183900781	1.002
17	329416	44.230183900781	1.002
17	329429	44.250183900781	1.002
17	329974	44.270183900781	1.002
17	330169	44.290183900781	1.002
17	330297	44.310183900781	1.002
17	330307	44.330183900781	1.002
17	330320	44.350183900781	1.002
17	330876	44.370183900781	1.002
17	331071	44.390183900781	1.002
17	331199	44.410183900781	1.002
17	331209	44.430183900781	1.002
17	331222	44.450183900781	1.002
17	331767	44.470183900781	1.002
17	331962	44.490183900781	1.002
17	332090	44.510183900781	1.002
17	332100	44.530183900781	1.002
17	332113	44.550183900781	1.002
17	332653	44.570183900781	1.002
17	332848	44.590183900781	1.002
17	332976	44.610183900781	1.002
17	332986	44.630183900781	1.002
17	332999	44.650183900781	1.002
17	333555	44.670183900781	1.002
17	333750	44.690183900781	1.002
17	333878	44.710183900781	1.002
17	333888	44.730183900781	1.002
17	333901	44.750183900781	1.002
17	334441	44.770183900781	1.002
17	334636	44.790183900781	1.002
17	334764	44.810183900781	1.002
17	334774	44.830183900781	1.002
17	334787	44.850183900781	1.002
17	335321	44.870183900781	1.002
17	335516	44.890183900781	1.002
17	335644	44.910183900781	1.002
17	335654	44.930183900781	1.002
17	335667	44.950183900781	1.002
17	336234	44.970183900781	1.002
17	336429	44.990183900781	1.002
17	336557	45.010183900781	1.002
17	336567	45.030183900781	1.002
17	336580	45.050183900781	1.002
17	337120	45.070183900781	1.002
17	337315	45.090183900781	1.002
17	337443	45.110183900781	1.002
17	337453	45.130183900781	1.002
17	337466	45.150183900781	1.002
17	338022	45.170183900781	1.002
17	338217	45.190183900781	1.002
17	338345	45.210183900781	1.002
17	338355	45.230183900781	1.002
17	338368	45.250183900781	1.002
17	338918	45.270183900781	1.002
17	339113	45.290183900781	1.002
17	339241	45.310183900781	1.002
17	339251	45.330183900781	1.002
17	339264	45.350183900781	1.002
17	339809	45.370183900781	1.002
17	340004	45.390183900781	1.002
17	340132	45.410183900781	1.002
17	340142	45.430183900781	1.002
17	340155	45.450183900781	1.002
17	340700	45.470183900781	1.002
17	340895	45.490183900781	1.002
17	341023	45.510183900781	1.002
17	341033	45.530183900781	1.002
17	341046	45.550183900781	1.002
17	341613	45.570183900781	1.002
17	341808	45.590183900781	1.002
17	341936	45.610183900781	1.002
17	341946	45.630183900781	1.002
17	341959	45.650183900781	1.002
17	342499	45.670183900781	1.002
17	342694	45.690183900781	1.002
17	342822	45.710183900781	1.002
17	342832	45.730183900781	1.002
17	342845	45.750183900781	1.002
17	343417	45.770183900781	1.002
17	343612	45.790183900781	1.002
17	343740	45.810183900781	1.002
17	343750	45.830183900781	1.002
17	343763	45.850183900781	1.002
17	344303	45.870183900781	1.002
17	344498	45.890183900781	1.002
17	344626	45.910183900781	1.002
17	344636	45.930183900781	1.002
17	344649	45.950183900781	1.002
17	345211	45.970183900781	1.002
17	345406	45.990183900781	1.002
17	345534	46.010183900781	1.002
17	345544	46.030183900781	1.002
17	345557	46.050183900781	1.002
17	346124	46.070183900781	1.002
17	346319	46.090183900781	1.002
17	346447	46.110183900781	1.002
17	346457	46.130183900781	1.002
17	346470	46.150183900781	1.002
17	347015	46.170183900781	1.002
17	347210	46.190183900781	1.002
17	347338	46.210183900781	1.002
17	347348	46.230183900781	1.002
17	347361	46.250183900781	1.002
17	347906	46.270183900781	1.002
17	348101	46.290183900781	1.002
17	348229	46.310183900781	1.002
17	348239	46.330183900781	1.002
17	348252	46.350183900781	1.002
17	348808	46.370183900781	1.002
17	349003	46.390183900781	1.002
17	349131	46.410183900781	1.002
17	349141	46.430183900781	1.002
17	349154	46.450183900781	1.002
17	349715	46.470183900781	1.002
17	349910	46.490183900781	1.002
17	350038	46.510183900781	1.002
17	350048	46.530183900781	1.002
17	350061	46.550183900781	1.002
17	350612	46.570183900781	1.002
17	350807	46.590183900781	1.002
17	350935	46.610183900781	1.002
17	350945	46.630183900781	1.002
17	350958	46.650183900781	1.002
17	351525	46.670183900781	1.002
17	351720	46.690183900781	1.002
17	351848	46.710183900781	1.002
17	351858	46.730183900781	1.002
17	351871	46.750183900781	1.002
17	352443	46.770183900781	1.002
17	352638	46.790183900781	1.002
17	352766	46.810183900781	1.002
17	352776	46.830183900781	1.002
17	352789	46.850183900781	1.002
17	353366	46.870183900781	1.002
17	353561	46.890183900781	1.002
17	353689	46.910183900781	1.002
17	353699	46.930183900781	1.002
17	353712	46.950183900781	1.002
17	354268	46.970183900781	1.002
17	354463	46.990183900781	1.002
17	354591	47.010183900781	1.002
17	354601	47.030183900781	1.002
17	354614	47.050183900781	1.002
17	355175	47.070183900781	1.002
17	355370	47.090183900781	1.002
17	355498	47.110183900781	1.002
17	355508	47.130183900781	1.002
17	355521	47.150183900781	1.002
17	356088	47.170183900781	1.002
17	356283	47.190183900781	1.002
17	356411	47.210183900781	1.002
17	356421	47.230183900781	1.002
17	356434	47.250183900781	1.002
17	356985	47.270183900781	1.002
17	357180	47.290183900781	1.002
17	357308	47.310183900781	1.002
17	357318	47.330183900781	1.002
17	357331	47.350183900781	1.002
17	357914	47.370183900781	1.002
17	358109	47.390183900781	1.002
17	358237	47.410183900781	1.002
17	358247	47.430183900781	1.002
17	358260	47.450183900781	1.002
17	358805	47.470183900781	1.002
17	359000	47.490183900781	1.002
17	359128	47.510183900781	1.002
17	359138	47.530183900781	1.002
17	359151	47.550183900781	1.002
17	359702	47.570183900781	1.002
17	359897	47.590183900781	1.002
17	360025	47.610183900781	1.002
17	360035	47.630183900781	1.002
17	360048	47.650183900781	1.002
17	360625	47.670183900781	1.002
17	360820	47.690183900781	1.002
[...]
14	334758	44.800279462259	0.002
14	334790	44.850279462259	0.001
14	335638	44.900279462259	0.002
14	335670	44.950279462259	0.001
14	336551	45.000279462259	0.002
14	336583	45.050279462259	0.001
14	337437	45.100279462259	0.002
14	337469	45.150279462259	0.001
14	338339	45.200279462259	0.002
14	338371	45.250279462259	0.001
14	339235	45.300279462259	0.002
14	339267	45.350279462259	0.001
14	340126	45.400279462259	0.002
14	340158	45.450279462259	0.001
14	341017	45.500279462259	0.002
14	341049	45.550279462259	0.001
14	341930	45.600279462259	0.002
14	341962	45.650279462259	0.001
14	342816	45.700279462259	0.002
14	342848	45.750279462259	0.001
14	343734	45.800279462259	0.002
14	343766	45.850279462259	0.001
14	344620	45.900279462259	0.002
14	344652	45.950279462259	0.001
14	345528	46.000279462259	0.002
14	345560	46.050279462259	0.001
14	346441	46.100279462259	0.002
14	346473	46.150279462259	0.001
14	347332	46.200279462259	0.002
14	347364	46.250279462259	0.001
14	348223	46.300279462259	0.002
14	348255	46.350279462259	0.001
14	349125	46.400279462259	0.002
14	349157	46.450279462259	0.001
14	350032	46.500279462259	0.002
14	350064	46.550279462259	0.001
14	350929	46.600279462259	0.002
14	350961	46.650279462259	0.001
14	351842	46.700279462259	0.002
14	351874	46.750279462259	0.001
14	352760	46.800279462259	0.002
14	352792	46.850279462259	0.001
14	353683	46.900279462259	0.002
14	353715	46.950279462259	0.001
14	354585	47.000279462259	0.002
14	354617	47.050279462259	0.001
14	355492	47.100279462259	0.002
14	355524	47.150279462259	0.001
14	356405	47.200279462259	0.002
14	356437	47.250279462259	0.001
14	357302	47.300279462259	0.002
14	357334	47.350279462259	0.001
14	358231	47.400279462259	0.002
14	358263	47.450279462259	0.001
14	359122	47.500279462259	0.002
14	359154	47.550279462259	0.001
14	360019	47.600279462259	0.002
14	360051	47.650279462259	0.001
14	360942	47.700279462259	0.002
14	360974	47.750279462259	0.001
14	361849	47.800279462259	0.002
14	361881	47.850279462259	0.001
14	362756	47.900279462259	0.002
14	362788	47.950279462259	0.001
14	363658	48.000279462259	0.002
14	363690	48.050279462259	0.001
14	364565	48.100279462259	0.002
14	364597	48.150279462259	0.001
14	365467	48.200279462259	0.002
14	365499	48.250279462259	0.001
14	366353	48.300279462259	0.002
14	366385	48.350279462259	0.001
14	367266	48.400279462259	0.002
14	367298	48.450279462259	0.001
14	368173	48.500279462259	0.002
14	368205	48.550279462259	0.001
14	369086	48.600279462259	0.002
14	369118	48.650279462259	0.001
14	369983	48.700279462259	0.002
14	370015	48.750279462259	0.001
14	370917	48.800279462259	0.002
14	370949	48.850279462259	0.001
14	371797	48.900279462259	0.002
14	371829	48.950279462259	0.001
14	372688	49.000279462259	0.002
14	372720	49.050279462259	0.001
14	373617	49.100279462259	0.002
14	373649	49.150279462259	0.001
14	374519	49.200279462259	0.002
14	374551	49.250279462259	0.001
14	375416	49.300279462259	0.002
14	375448	49.350279462259	0.001
14	376323	49.400279462259	0.002
14	376355	49.450279462259	0.001
14	377220	49.500279462259	0.002
14	377252	49.550279462259	0.001
14	378133	49.600279462259	0.002
14	378165	49.650279462259	0.001
14	379025	49.700279462259	0.002
14	379057	49.750279462259	0.001
14	379943	49.800279462259	0.002
14	379975	49.850279462259	0.001
14	380850	49.900279462259	0.002
14	380882	49.950279462259	0.001
14	381736	50.000279462259	0.002
14	381768	50.050279462259	0.001
14	382638	50.100279462259	0.002
14	382670	50.150279462259	0.001
14	383540	50.200279462259	0.002
14	383572	50.250279462259	0.001
14	384426	50.300279462259	0.002
14	384458	50.350279462259	0.001
14	385317	50.400279462259	0.002
14	385349	50.450279462259	0.001
14	386219	50.500279462259	0.002
14	386251	50.550279462259	0.001
14	387142	50.600279462259	0.002
14	387174	50.650279462259	0.001
14	388060	50.700279462259	0.002
14	388092	50.750279462259	0.001
14	388973	50.800279462259	0.002
14	389005	50.850279462259	0.001
14	389880	50.900279462259	0.002
14	389912	50.950279462259	0.001
14	390793	51.000279462259	0.002
14	390825	51.050279462259	0.001
14	391684	51.100279462259	0.002
14	391716	51.150279462259	0.001
14	392581	51.200279462259	0.002
14	392613	51.250279462259	0.001
14	393494	51.300279462259	0.002
14	393526	51.350279462259	0.001
14	394412	51.400279462259	0.002
14	394444	51.450279462259	0.001
14	395341	51.500279462259	0.002
14	395373	51.550279462259	0.001
14	396270	51.600279462259	0.002
14	396302	51.650279462259	0.001
14	397183	51.700279462259	0.002
14	397215	51.750279462259	0.001
14	398085	51.800279462259	0.002
14	398117	51.850279462259	0.001
14	398997	51.900279462259	0.002
14	399029	51.950279462259	0.001
14	399893	52.000279462259	0.002
14	399925	52.050279462259	0.001
14	400779	52.100279462259	0.002
14	400811	52.150279462259	0.001
14	401697	52.200279462259	0.002
14	401729	52.250279462259	0.001
14	402615	52.300279462259	0.002
14	402647	52.350279462259	0.001
14	403512	52.400279462259	0.002
14	403544	52.450279462259	0.001
14	404409	52.500279462259	0.002
14	404441	52.550279462259	0.001
14	405322	52.600279462259	0.002
14	405354	52.650279462259	0.001
14	406229	52.700279462259	0.002
14	406261	52.750279462259	0.001
14	407147	52.800279462259	0.002
14	407179	52.850279462259	0.001
14	408065	52.900279462259	0.002
14	408097	52.950279462259	0.001
14	408983	53.000279462259	0.002
14	409015	53.050279462259	0.001
14	409928	53.100279462259	0.002
14	409960	53.150279462259	0.001
14	410857	53.200279462259	0.002
14	410889	53.250279462259	0.001
14	411743	53.300279462259	0.002
14	411775	53.350279462259	0.001
14	412672	53.400279462259	0.002
14	412704	53.450279462259	0.001
14	413569	53.500279462259	0.002
14	413601	53.550279462259	0.001
14	414493	53.600279462259	0.002
14	414525	53.650279462259	0.001
14	415373	53.700279462259	0.002
14	415405	53.750279462259	0.001
14	416253	53.800279462259	0.002
14	416285	53.850279462259	0.001
14	417144	53.900279462259	0.002
14	417176	53.950279462259	0.001
14	418035	54.000279462259	0.002
14	418067	54.050279462259	0.001
14	418953	54.100279462259	0.002
14	418985	54.150279462259	0.001
14	419855	54.200279462259	0.002
14	419887	54.250279462259	0.001
14	420751	54.300279462259	0.002
14	420783	54.350279462259	0.001
14	421664	54.400279462259	0.002
14	421696	54.450279462259	0.001
14	422566	54.500279462259	0.002
14	422598	54.550279462259	0.001
14	423468	54.600279462259	0.002
14	423500	54.650279462259	0.001
14	424375	54.700279462259	0.002
14	424407	54.750279462259	0.001
14	425261	54.800279462259	0.002
14	425293	54.850279462259	0.001
14	426179	54.900279462259	0.002
14	426211	54.950279462259	0.001
14	427086	55.000279462259	0.002
14	427118	55.050279462259	0.001
14	427999	55.100279462259	0.002
14	428031	55.150279462259	0.001
14	428906	55.200279462259	0.002
14	428938	55.250279462259	0.001
14	429813	55.300279462259	0.002
14	429845	55.350279462259	0.001
14	430726	55.400279462259	0.002
14	430758	55.450279462259	0.001
14	431644	55.500279462259	0.002
14	431676	55.550279462259	0.001
14	432573	55.600279462259	0.002
14	432605	55.650279462259	0.001
14	433491	55.700279462259	0.002
14	433523	55.750279462259	0.001
14	434393	55.800279462259	0.002
14	434425	55.850279462259	0.001
14	435311	55.900279462259	0.002
14	435343	55.950279462259	0.001
14	436229	56.000279462259	0.002
14	436261	56.050279462259	0.001
14	437147	56.100279462259	0.002
14	437179	56.150279462259	0.001
14	438060	56.200279462259	0.002
14	438092	56.250279462259	0.001
14	438978	56.300279462259	0.002
14	439010	56.350279462259	0.001
14	439896	56.400279462259	0.002
14	439928	56.450279462259	0.001
14	440787	56.500279462259	0.002
14	440819	56.550279462259	0.001
14	441689	56.600279462259	0.002
14	441721	56.650279462259	0.001
14	442602	56.700279462259	0.002
14	442634	56.750279462259	0.001
14	443499	56.800279462259	0.002
14	443531	56.850279462259	0.001
14	444401	56.900279462259	0.002
14	444433	56.950279462259	0.001
14	445303	57.000279462259	0.002
14	445335	57.050279462259	0.001
14	446210	57.100279462259	0.002
14	446242	57.150279462259	0.001
14	447090	57.200279462259	0.002
14	447122	57.250279462259	0.001
14	448008	57.300279462259	0.002
14	448040	57.350279462259	0.001
14	448899	57.400279462259	0.002
14	448931	57.450279462259	0.001
14	449801	57.500279462259	0.002
14	449833	57.550279462259	0.001
14	450714	57.600279462259	0.002
14	450746	57.650279462259	0.001
14	451600	57.700279462259	0.002
14	451632	57.750279462259	0.001
14	452518	57.800279462259	0.002
14	452550	57.850279462259	0.001
14	453447	57.900279462259	0.002
14	453479	57.950279462259	0.001
14	454349	58.000279462259	0.002
14	454381	58.050279462259	0.001
14	455262	58.100279462259	0.002
14	455294	58.150279462259	0.001
14	456180	58.200279462259	0.002
14	456212	58.250279462259	0.001
14	457098	58.300279462259	0.002
14	457130	58.350279462259	0.001
14	458000	58.400279462259	0.002
14	458032	58.450279462259	0.001
14	458929	58.500279462259	0.002
14	458961	58.550279462259	0.001
14	459842	58.600279462259	0.002
14	459874	58.650279462259	0.001
14	460738	58.700279462259	0.002
14	460770	58.750279462259	0.001
14	461662	58.800279462259	0.002
14	461694	58.850279462259	0.001
14	462554	58.900279462259	0.002
14	462586	58.950279462259	0.001
14	463472	59.000279462259	0.002
14	463504	59.050279462259	0.001
14	464368	59.100279462259	0.002
14	464400	59.150279462259	0.001
14	465275	59.200279462259	0.002
14	465307	59.250279462259	0.001
14	466183	59.300279462259	0.002
14	466215	59.350279462259	0.001
14	467101	59.400279462259	0.002
14	467133	59.450279462259	0.001
14	467986	59.500279462259	0.002
14	468018	59.550279462259	0.001
14	468904	59.600279462259	0.002
14	468936	59.650279462259	0.001
14	469822	59.700279462259	0.002
14	469854	59.750279462259	0.001
14	470740	59.800279462259	0.002
14	470772	59.850279462259	0.001
14	471642	59.900279462259	0.002
14	471674	59.950279462259	0.001
14	472544	60.000279462259	0.002
14	472576	60.050279462259	0.001
14	473462	60.100279462259	0.002
14	473494	60.150279462259	0.001
14	474364	60.200279462259	0.002
14	474396	60.250279462259	0.001
14	475282	60.300279462259	0.002
14	475314	60.350279462259	0.001
14	476163	60.400279462259	0.002
14	476195	60.450279462259	0.001
14	477087	60.500279462259	0.002
14	477119	60.550279462259	0.001
14	478005	60.600279462259	0.002
14	478037	60.650279462259	0.001
14	478934	60.700279462259	0.002
14	478966	60.750279462259	0.001
14	479847	60.800279462259	0.002
14	479879	60.850279462259	0.001
14	480754	60.900279462259	0.002
14	480786	60.950279462259	0.001
14	481651	61.000279462259	0.002
14	481683	61.050279462259	0.001
14	482564	61.100279462259	0.002
14	482596	61.150279462259	0.001
14	483466	61.200279462259	0.002
14	483498	61.250279462259	0.001
14	484379	61.300279462259	0.002
14	484411	61.350279462259	0.001
14	485303	61.400279462259	0.002
14	485335	61.450279462259	0.001
14	486199	61.500279462259	0.002
14	486231	61.550279462259	0.001
14	487116	61.600279462259	0.002
14	487142	61.650279462259	0.001
14	487743	61.700279462259	0.002
14	487769	61.750279462259	0.001
14	488375	61.800279462259	0.002
14	488401	61.850279462259	0.001
14	489011	61.900279462259	0.002
14	489037	61.950279462259	0.001
14	489617	62.000279462259	0.002
14	489643	62.050279462259	0.001
14	490253	62.100279462259	0.002
14	490279	62.150279462259	0.001
14	490858	62.200279462259	0.002
14	490884	62.250279462259	0.001
14	491503	62.300279462259	0.002
14	491529	62.350279462259	0.001
14	492117	62.400279462259	0.002
14	492143	62.450279462259	0.001
14	492735	62.500279462259	0.002
14	492761	62.550279462259	0.001
14	493358	62.600279462259	0.002
14	493384	62.650279462259	0.001
14	493968	62.700279462259	0.002
14	493994	62.750279462259	0.001
14	494600	62.800279462259	0.002
14	494626	62.850279462259	0.001
14	495210	62.900279462259	0.002
14	495236	62.950279462259	0.001
14	495824	63.000279462259	0.002
14	495850	63.050279462259	0.001
14	496456	63.100279462259	0.002
14	496482	63.150279462259	0.001
14	497079	63.200279462259	0.002
14	497105	63.250279462259	0.001
14	497685	63.300279462259	0.002
14	497711	63.350279462259	0.001
14	498308	63.400279462259	0.002
14	498334	63.450279462259	0.001
14	498931	63.500279462259	0.002
14	498957	63.550279462259	0.001
14	499563	63.600279462259	0.002
14	499589	63.650279462259	0.001
14	500186	63.700279462259	0.002
14	500212	63.750279462259	0.001
14	500804	63.800279462259	0.002
14	500830	63.850279462259	0.001
14	501427	63.900279462259	0.002
14	501453	63.950279462259	0.001
14	502072	64.000279462259	0.002
14	502098	64.050279462259	0.001
14	502704	64.100279462259	0.002
14	502730	64.150279462259	0.001
14	503336	64.200279462259	0.002
14	503362	64.250279462259	0.001
14	503955	64.300279462259	0.002
14	503981	64.350279462259	0.001
14	504582	64.400279462259	0.002
14	504608	64.450279462259	0.001
14	505201	64.500279462259	0.002
14	505227	64.550279462259	0.001
14	505815	64.600279462259	0.002
14	505841	64.650279462259	0.001
14	506428	64.700279462259	0.002
14	506448	64.750279462259	0.001
14	506822	64.800279462259	0.002
14	506842	64.850279462259	0.001
14	507206	64.900279462259	0.002
14	507226	64.950279462259	0.001
14	507600	65.000279462259	0.002
14	507620	65.050279462259	0.001
14	507984	65.100279462259	0.002
14	508004	65.150279462259	0.001
14	508388	65.200279462259	0.002
14	508408	65.250279462259	0.001
14	508772	65.300279462259	0.002
14	508792	65.350279462259	0.001
14	509149	65.400279462259	0.002
14	509169	65.450279462259	0.001
14	509546	65.500279462259	0.002
14	509566	65.550279462259	0.001
14	509950	65.600279462259	0.002
14	509970	65.650279462259	0.001
14	510337	65.700279462259	0.002
14	510357	65.750279462259	0.001
14	510724	65.800279462259	0.002
14	510744	65.850279462259	0.001
14	511128	65.900279462259	0.002
14	511148	65.950279462259	0.001
14	511512	66.000279462259	0.002
14	511532	66.050279462259	0.001
14	511889	66.100279462259	0.002
14	511909	66.150279462259	0.001
14	512286	66.200279462259	0.002
14	512306	66.250279462259	0.001
14	512673	66.300279462259	0.002
14	512693	66.350279462259	0.001
14	513067	66.400279462259	0.002
14	513087	66.450279462259	0.001
14	513454	66.500279462259	0.002
14	513474	66.550279462259	0.001
14	513858	66.600279462259	0.002
14	513878	66.650279462259	0.001
14	514262	66.700279462259	0.002
14	514282	66.750279462259	0.001
14	514656	66.800279462259	0.002
14	514676	66.850279462259	0.001
14	515060	66.900279462259	0.002
14	515080	66.950279462259	0.001
14	515437	67.000279462259	0.002
14	515457	67.050279462259	0.001
14	515831	67.100279462259	0.002
14	515851	67.150279462259	0.001
14	516235	67.200279462259	0.002
14	516255	67.250279462259	0.001
14	516629	67.300279462259	0.002
14	516649	67.350279462259	0.001
14	517013	67.400279462259	0.002
14	517033	67.450279462259	0.001
14	517417	67.500279462259	0.002
14	517437	67.550279462259	0.001
14	517820	67.600279462259	0.002
14	517835	67.650279462259	0.001
14	518030	67.700279462259	0.002
14	518045	67.750279462259	0.001
14	518240	67.800279462259	0.002
14	518255	67.850279462259	0.001
14	518443	67.900279462259	0.002
14	518458	67.950279462259	0.001
14	518660	68.000279462259	0.002
14	518675	68.050279462259	0.001
14	518870	68.100279462259	0.002
14	518885	68.150279462259	0.001
14	519087	68.200279462259	0.002
14	519102	68.250279462259	0.001
14	519290	68.300279462259	0.002
14	519305	68.350279462259	0.001
14	519500	68.400279462259	0.002
14	519515	68.450279462259	0.001
14	519710	68.500279462259	0.002
14	519725	68.550279462259	0.001
14	519920	68.600279462259	0.002
14	519935	68.650279462259	0.001
14	520123	68.700279462259	0.002
14	520138	68.750279462259	0.001
14	520340	68.800279462259	0.002
14	520355	68.850279462259	0.001
14	520536	68.900279462259	0.002
14	520551	68.950279462259	0.001
14	520746	69.000279462259	0.002
14	520761	69.050279462259	0.001
14	520956	69.100279462259	0.002
14	520971	69.150279462259	0.001
14	521173	69.200279462259	0.002
14	521188	69.250279462259	0.001
14	521383	69.300279462259	0.002
14	521398	69.350279462259	0.001
14	521586	69.400279462259	0.002
14	521601	69.450279462259	0.001
14	521796	69.500279462259	0.002
14	521811	69.550279462259	0.001
14	522006	69.600279462259	0.002
14	522021	69.650279462259	0.001
14	522216	69.700279462259	0.002
14	522231	69.750279462259	0.001
14	522433	69.800279462259	0.002
14	522448	69.850279462259	0.001
14	522636	69.900279462259	0.002
14	522651	69.950279462259	0.001
14	522846	70.000279462259	0.002
14	522861	70.050279462259	0.001
14	523056	70.100279462259	0.002
14	523071	70.150279462259	0.001
14	523273	70.200279462259	0.002
14	523288	70.250279462259	0.001
14	523483	70.300279462259	0.002
14	523498	70.350279462259	0.001
14	523693	70.400279462259	0.002
14	523708	70.450279462259	0.001
14	523903	70.500279462259	0.002
14	523918	70.550279462259	0.001
14	524113	70.600279462259	0.002
14	524128	70.650279462259	0.001
14	524315	70.700279462259	0.002
14	524323	70.750279462259	0.001
14	524395	70.800279462259	0.002
14	524403	70.850279462259	0.001
14	524475	70.900279462259	0.002
14	524483	70.950279462259	0.001
14	524555	71.000279462259	0.002
14	524563	71.050279462259	0.001
14	524635	71.100279462259	0.002
14	524643	71.150279462259	0.001
14	524715	71.200279462259	0.002
14	524723	71.250279462259	0.001
14	524795	71.300279462259	0.002
14	524803	71.350279462259	0.001
14	524875	71.400279462259	0.002
14	524883	71.450279462259	0.001
14	524955	71.500279462259	0.002
14	524963	71.550279462259	0.001
14	525035	71.600279462259	0.002
14	525043	71.650279462259	0.001
14	525115	71.700279462259	0.002
14	525123	71.750279462259	0.001
14	525195	71.800279462259	0.002
14	525203	71.850279462259	0.001
14	525275	71.900279462259	0.002
14	525283	71.950279462259	0.001
14	525355	72.000279462259	0.002
14	525363	72.050279462259	0.001
14	525435	72.100279462259	0.002
14	525443	72.150279462259	0.001
14	525515	72.200279462259	0.002
14	525523	72.250279462259	0.001
14	525595	72.300279462259	0.002
14	525603	72.350279462259	0.001
14	525675	72.400279462259	0.002
14	525683	72.450279462259	0.001
14	525755	72.500279462259	0.002
14	525763	72.550279462259	0.001
14	525835	72.600279462259	0.002
14	525843	72.650279462259	0.001
14	525915	72.700279462259	0.002
14	525923	72.750279462259	0.001
14	525995	72.800279462259	0.002
14	526003	72.850279462259	0.001
14	526075	72.900279462259	0.002
14	526083	72.950279462259	0.001
14	526155	73.000279462259	0.002
14	526163	73.050279462259	0.001
14	526235	73.100279462259	0.002
14	526243	73.150279462259	0.001
14	526315	73.200279462259	0.002
14	526323	73.250279462259	0.001
14	526395	73.300279462259	0.002
14	526403	73.350279462259	0.001
14	526475	73.400279462259	0.002
14	526483	73.450279462259	0.001
14	526555	73.500279462259	0.002
14	526563	73.550279462259	0.001
14	526634	73.600279462259	0.002
14	526635	73.650279462259	0.001
14	526636	73.700279462259	0.002
14	526637	73.750279462259	0.001
14	526638	73.800279462259	0.002
14	526639	73.850279462259	0.001
14	526640	73.900279462259	0.002
14	526641	73.950279462259	0.001
14	526642	74.000279462259	0.002
14	526643	74.050279462259	0.001
14	526644	74.100279462259	0.002
14	526645	74.150279462259	0.001
14	526646	74.200279462259	0.002
14	526647	74.250279462259	0.001
14	526648	74.300279462259	0.002
14	526649	74.350279462259	0.001
14	526650	74.400279462259	0.002
14	526651	74.450279462259	0.001
14	526652	74.500279462259	0.002
14	526653	74.550279462259	0.001
14	526654	74.600279462259	0.002
14	526655	74.650279462259	0.001
14	526656	74.700279462259	0.002
14	526657	74.750279462259	0.001
14	526658	74.800279462259	0.002
14	526659	74.850279462259	0.001
14	526660	74.900279462259	0.002
14	526661	74.950279462259	0.001
14	526662	75.000279462259	0.002
14	526663	75.050279462259	0.001
14	526664	75.100279462259	0.002
14	526665	75.150279462259	0.001
14	526666	75.200279462259	0.002
14	526667	75.250279462259	0.001
14	526668	75.300279462259	0.002
14	526669	75.350279462259	0.001
14	526670	75.400279462259	0.002
14	526671	75.450279462259	0.001
14	526672	75.500279462259	0.002
14	526673	75.550279462259	0.001
14	526674	75.600279462259	0.002
14	526675	75.650279462259	0.001
14	526676	75.700279462259	0.002
14	526677	75.750279462259	0.001
14	526678	75.800279462259	0.002
14	526679	75.850279462259	0.001
14	526680	75.900279462259	0.002
14	526681	75.950279462259	0.001
