version 2
run VoIP-50ms_440B-0-20160909-12:45:55-12038
attr configname VoIP-50ms_440B
attr datetime 20160909-12:45:55
attr experiment VoIP-50ms_440B
attr inifile omnetpp.ini
attr iterationvars ""
attr iterationvars2 $repetition=0
attr measurement ""
attr network SymScenerio
attr processid 12038
attr repetition 0
attr replication #0
attr resultdir results
attr runnumber 0
attr seedset 0
param **.coreDebug false
param **.debug false
param *.**.nic.mac1609_4.bitrate 18Mbps
param *.**.nic.mac1609_4.txPower 20mW
param *.**.nic.mac1609_4.useServiceChannel true
param *.**.nic.phy80211p.analogueModels "xmldoc(\"config.xml\")"
param *.**.nic.phy80211p.decider "xmldoc(\"config.xml\")"
param *.**.nic.phy80211p.sensitivity -89dBm
param *.**.nic.phy80211p.thermalNoise -110dBm
param *.**.nic.phy80211p.usePropagationDelay true
param *.**.nic.phy80211p.useThermalNoise true
param *.annotations.draw false
param *.connectionManager.alpha 2.0
param *.connectionManager.carrierFrequency "5.890e9 Hz"
param *.connectionManager.pMax 20mW
param *.connectionManager.sat -89dBm
param *.connectionManager.sendDirect true
param *.manager.autoShutdown true
param *.manager.host "\"localhost\""
param *.manager.launchConfig "xmldoc(\"map.launchd.xml\")"
param *.manager.margin 25
param *.manager.moduleDisplayString "\"\""
param *.manager.moduleName "\"node\""
param *.manager.moduleType "\"symulacja.veins.nodes.Car\""
param *.manager.port 9999
param *.manager.updateInterval 0.1s
param *.node[*].appl.beaconInterval 1s
param *.node[*].appl.beaconPriority 3
param *.node[*].appl.dataOnSch false
param *.node[*].appl.dataPriority 2
param *.node[*].appl.debug false
param *.node[*].appl.maxOffset 0.005s
param *.node[*].appl.sendBeacons false
param *.node[*].appl.sendData true
param *.node[*].appl.sendVoIP true
param *.node[*].appl.voipInterval 0.020s
param *.node[*].appl.voipLengthBits "200 bits"
param *.node[*].appl.voipOnSch true
param *.node[*].appl.voipPriority 3
param *.node[*].applType "\"Sym11p\""
param *.node[*].veinsmobility.x 0
param *.node[*].veinsmobility.y 0
param *.node[*].veinsmobility.z 1.895
param *.node[*].veinsmobilityType "\"symulacja.veins.modules.mobility.traci.TraCIMobility\""
param *.playgroundSizeX 9000m
param *.playgroundSizeY 9000m
param *.playgroundSizeZ 50m
param *.rsu[*].appl.beaconInterval 1s
param *.rsu[*].appl.beaconPriority 3
param *.rsu[*].appl.dataOnSch false
param *.rsu[*].appl.dataPriority 2
param *.rsu[*].appl.debug false
param *.rsu[*].appl.headerLength "256 bit"
param *.rsu[*].appl.maxOffset 0.005s
param *.rsu[*].appl.sendBeacons false
param *.rsu[*].appl.sendData false
param *.rsu[*].appl.sendVoIP false
param *.rsu[*].applType "\"SymRSU11p\""
param *.rsu[0].mobility.x 2160
param *.rsu[0].mobility.y 3100
param *.rsu[0].mobility.z 3
param *.world.use2D false
param *.world.useTorus false

vector 9  SymScenerio.rsu[0].nic.mac1609_4  "Interwały kanałów"  ETV
vector 18  SymScenerio.node[0].veinsmobility  posx  ETV
vector 19  SymScenerio.node[0].veinsmobility  posy  ETV
vector 17  SymScenerio.node[0].nic.mac1609_4  "Interwały kanałów"  ETV
vector 20  SymScenerio.node[0].veinsmobility  speed  ETV
vector 21  SymScenerio.node[0].veinsmobility  acceleration  ETV
vector 22  SymScenerio.node[0].veinsmobility  co2emission  ETV
vector 10  SymScenerio.node[0].appl  "TX Packets"  ETV
vector 11  SymScenerio.node[0].appl  "TX Total"  ETV
vector 12  SymScenerio.node[0].appl  Pakietyzacja  ETV
vector 3  SymScenerio.rsu[0].appl  "RX Packets"  ETV
vector 4  SymScenerio.rsu[0].appl  "RX Packet"  ETV
vector 31  SymScenerio.node[1].veinsmobility  posx  ETV
vector 32  SymScenerio.node[1].veinsmobility  posy  ETV
vector 30  SymScenerio.node[1].nic.mac1609_4  "Interwały kanałów"  ETV
vector 23  SymScenerio.node[1].appl  "TX Packets"  ETV
vector 24  SymScenerio.node[1].appl  "TX Total"  ETV
vector 25  SymScenerio.node[1].appl  Pakietyzacja  ETV
vector 33  SymScenerio.node[1].veinsmobility  speed  ETV
vector 34  SymScenerio.node[1].veinsmobility  acceleration  ETV
vector 35  SymScenerio.node[1].veinsmobility  co2emission  ETV
vector 44  SymScenerio.node[2].veinsmobility  posx  ETV
vector 45  SymScenerio.node[2].veinsmobility  posy  ETV
vector 43  SymScenerio.node[2].nic.mac1609_4  "Interwały kanałów"  ETV
vector 46  SymScenerio.node[2].veinsmobility  speed  ETV
vector 47  SymScenerio.node[2].veinsmobility  acceleration  ETV
vector 48  SymScenerio.node[2].veinsmobility  co2emission  ETV
vector 36  SymScenerio.node[2].appl  "TX Packets"  ETV
vector 37  SymScenerio.node[2].appl  "TX Total"  ETV
vector 38  SymScenerio.node[2].appl  Pakietyzacja  ETV
vector 57  SymScenerio.node[3].veinsmobility  posx  ETV
vector 58  SymScenerio.node[3].veinsmobility  posy  ETV
vector 56  SymScenerio.node[3].nic.mac1609_4  "Interwały kanałów"  ETV
vector 59  SymScenerio.node[3].veinsmobility  speed  ETV
vector 60  SymScenerio.node[3].veinsmobility  acceleration  ETV
vector 61  SymScenerio.node[3].veinsmobility  co2emission  ETV
vector 49  SymScenerio.node[3].appl  "TX Packets"  ETV
vector 50  SymScenerio.node[3].appl  "TX Total"  ETV
vector 51  SymScenerio.node[3].appl  Pakietyzacja  ETV
vector 70  SymScenerio.node[4].veinsmobility  posx  ETV
vector 71  SymScenerio.node[4].veinsmobility  posy  ETV
vector 69  SymScenerio.node[4].nic.mac1609_4  "Interwały kanałów"  ETV
vector 62  SymScenerio.node[4].appl  "TX Packets"  ETV
vector 63  SymScenerio.node[4].appl  "TX Total"  ETV
vector 64  SymScenerio.node[4].appl  Pakietyzacja  ETV
vector 72  SymScenerio.node[4].veinsmobility  speed  ETV
vector 73  SymScenerio.node[4].veinsmobility  acceleration  ETV
vector 74  SymScenerio.node[4].veinsmobility  co2emission  ETV
12	27	0.561827398394	1.002
12	45	0.611827398394	1.002
12	62	0.661827398394	1.002
12	80	0.711827398394	1.002
12	97	0.761827398394	1.002
12	115	0.811827398394	1.002
12	132	0.861827398394	1.002
12	150	0.911827398394	1.002
12	167	0.961827398394	1.002
12	185	1.011827398394	1.002
12	202	1.061827398394	1.002
12	220	1.111827398394	1.002
12	237	1.161827398394	1.002
12	255	1.211827398394	1.002
12	272	1.261827398394	1.002
12	290	1.311827398394	1.002
12	307	1.361827398394	1.002
12	325	1.411827398394	1.002
12	342	1.461827398394	1.002
12	360	1.511827398394	1.002
12	377	1.561827398394	1.002
12	395	1.611827398394	1.002
12	412	1.661827398394	1.002
12	430	1.711827398394	1.002
12	447	1.761827398394	1.002
12	465	1.811827398394	1.002
12	482	1.861827398394	1.002
12	500	1.911827398394	1.002
12	517	1.961827398394	1.002
12	535	2.011827398394	1.002
12	552	2.061827398394	1.002
12	570	2.111827398394	1.002
12	587	2.161827398394	1.002
12	605	2.211827398394	1.002
12	622	2.261827398394	1.002
12	640	2.311827398394	1.002
12	657	2.361827398394	1.002
12	675	2.411827398394	1.002
12	692	2.461827398394	1.002
12	710	2.511827398394	1.002
12	727	2.561827398394	1.002
12	745	2.611827398394	1.002
12	762	2.661827398394	1.002
12	780	2.711827398394	1.002
12	797	2.761827398394	1.002
12	815	2.811827398394	1.002
12	832	2.861827398394	1.002
12	850	2.911827398394	1.002
12	867	2.961827398394	1.002
12	885	3.011827398394	1.002
12	902	3.061827398394	1.002
12	920	3.111827398394	1.002
12	965	3.161827398394	1.002
12	992	3.211827398394	1.002
12	1056	3.261827398394	1.002
12	1083	3.311827398394	1.002
12	1147	3.361827398394	1.002
12	1174	3.411827398394	1.002
12	1238	3.461827398394	1.002
12	1265	3.511827398394	1.002
12	1329	3.561827398394	1.002
12	1356	3.611827398394	1.002
12	1420	3.661827398394	1.002
12	1447	3.711827398394	1.002
12	1511	3.761827398394	1.002
12	1538	3.811827398394	1.002
12	1602	3.861827398394	1.002
12	1629	3.911827398394	1.002
12	1693	3.961827398394	1.002
12	1720	4.011827398394	1.002
12	1784	4.061827398394	1.002
12	1811	4.111827398394	1.002
12	1875	4.161827398394	1.002
12	1902	4.211827398394	1.002
12	1966	4.261827398394	1.002
12	1993	4.311827398394	1.002
12	2057	4.361827398394	1.002
12	2084	4.411827398394	1.002
12	2148	4.461827398394	1.002
12	2175	4.511827398394	1.002
12	2239	4.561827398394	1.002
12	2266	4.611827398394	1.002
12	2330	4.661827398394	1.002
12	2357	4.711827398394	1.002
12	2421	4.761827398394	1.002
12	2448	4.811827398394	1.002
12	2512	4.861827398394	1.002
12	2539	4.911827398394	1.002
12	2603	4.961827398394	1.002
12	2630	5.011827398394	1.002
12	2694	5.061827398394	1.002
12	2721	5.111827398394	1.002
12	2785	5.161827398394	1.002
12	2812	5.211827398394	1.002
12	2876	5.261827398394	1.002
12	2903	5.311827398394	1.002
12	2967	5.361827398394	1.002
12	2994	5.411827398394	1.002
12	3058	5.461827398394	1.002
12	3085	5.511827398394	1.002
12	3149	5.561827398394	1.002
12	3176	5.611827398394	1.002
12	3240	5.661827398394	1.002
12	3267	5.711827398394	1.002
12	3331	5.761827398394	1.002
12	3358	5.811827398394	1.002
12	3422	5.861827398394	1.002
12	3449	5.911827398394	1.002
12	3513	5.961827398394	1.002
12	3540	6.011827398394	1.002
12	3604	6.061827398394	1.002
12	3631	6.111827398394	1.002
12	3714	6.161827398394	1.002
12	3748	6.211827398394	1.002
12	3831	6.261827398394	1.002
12	3865	6.311827398394	1.002
12	3948	6.361827398394	1.002
12	3982	6.411827398394	1.002
12	4065	6.461827398394	1.002
12	4099	6.511827398394	1.002
12	4182	6.561827398394	1.002
12	4216	6.611827398394	1.002
12	4299	6.661827398394	1.002
12	4333	6.711827398394	1.002
12	4416	6.761827398394	1.002
12	4450	6.811827398394	1.002
12	4533	6.861827398394	1.002
12	4594	6.911827398394	1.002
12	4704	6.961827398394	1.002
12	4765	7.011827398394	1.002
12	4865	7.061827398394	1.002
12	4926	7.111827398394	1.002
12	5026	7.161827398394	1.002
12	5087	7.211827398394	1.002
12	5197	7.261827398394	1.002
12	5258	7.311827398394	1.002
12	5368	7.361827398394	1.002
12	5429	7.411827398394	1.002
12	5539	7.461827398394	1.002
12	5600	7.511827398394	1.002
12	5710	7.561827398394	1.002
12	5771	7.611827398394	1.002
12	5881	7.661827398394	1.002
12	5942	7.711827398394	1.002
12	6052	7.761827398394	1.002
12	6113	7.811827398394	1.002
12	6223	7.861827398394	1.002
12	6284	7.911827398394	1.002
12	6394	7.961827398394	1.002
12	6455	8.011827398394	1.002
12	6565	8.061827398394	1.002
12	6626	8.111827398394	1.002
12	6736	8.161827398394	1.002
12	6797	8.211827398394	1.002
12	6907	8.261827398394	1.002
12	6968	8.311827398394	1.002
12	7068	8.361827398394	1.002
12	7129	8.411827398394	1.002
12	7239	8.461827398394	1.002
12	7300	8.511827398394	1.002
12	7410	8.561827398394	1.002
12	7471	8.611827398394	1.002
12	7571	8.661827398394	1.002
12	7632	8.711827398394	1.002
12	7742	8.761827398394	1.002
12	7803	8.811827398394	1.002
12	7913	8.861827398394	1.002
12	7974	8.911827398394	1.002
12	8084	8.961827398394	1.002
12	8145	9.011827398394	1.002
12	8255	9.061827398394	1.002
12	8316	9.111827398394	1.002
12	8438	9.161827398394	1.002
12	8512	9.211827398394	1.002
12	8647	9.261827398394	1.002
12	8721	9.311827398394	1.002
12	8856	9.361827398394	1.002
12	8930	9.411827398394	1.002
12	9052	9.461827398394	1.002
12	9126	9.511827398394	1.002
12	9261	9.561827398394	1.002
12	9335	9.611827398394	1.002
12	9457	9.661827398394	1.002
12	9531	9.711827398394	1.002
12	9666	9.761827398394	1.002
12	9773	9.811827398394	1.002
12	9941	9.861827398394	1.002
12	10048	9.911827398394	1.002
12	10203	9.961827398394	1.002
12	10310	10.011827398394	1.002
12	10478	10.061827398394	1.002
12	10585	10.111827398394	1.002
12	10753	10.161827398394	1.002
12	10860	10.211827398394	1.002
12	11028	10.261827398394	1.002
12	11135	10.311827398394	1.002
12	11290	10.361827398394	1.002
12	11397	10.411827398394	1.002
12	11552	10.461827398394	1.002
12	11659	10.511827398394	1.002
12	11814	10.561827398394	1.002
12	11921	10.611827398394	1.002
12	12076	10.661827398394	1.002
12	12183	10.711827398394	1.002
12	12351	10.761827398394	1.002
12	12458	10.811827398394	1.002
12	12613	10.861827398394	1.002
12	12720	10.911827398394	1.002
12	12875	10.961827398394	1.002
12	12982	11.011827398394	1.002
12	13150	11.061827398394	1.002
12	13257	11.111827398394	1.002
12	13412	11.161827398394	1.002
12	13519	11.211827398394	1.002
12	13687	11.261827398394	1.002
12	13794	11.311827398394	1.002
12	13962	11.361827398394	1.002
12	14069	11.411827398394	1.002
12	14237	11.461827398394	1.002
12	14344	11.511827398394	1.002
12	14499	11.561827398394	1.002
12	14606	11.611827398394	1.002
12	14761	11.661827398394	1.002
12	14868	11.711827398394	1.002
12	15023	11.761827398394	1.002
12	15130	11.811827398394	1.002
12	15285	11.861827398394	1.002
12	15392	11.911827398394	1.002
12	15560	11.961827398394	1.002
12	15667	12.011827398394	1.002
12	15835	12.061827398394	1.002
12	15942	12.111827398394	1.002
12	16153	12.161827398394	1.002
12	16281	12.211827398394	1.002
12	16540	12.261827398394	1.002
12	16668	12.311827398394	1.002
12	16927	12.361827398394	1.002
12	17055	12.411827398394	1.002
12	17303	12.461827398394	1.002
12	17431	12.511827398394	1.002
12	17690	12.561827398394	1.002
12	17818	12.611827398394	1.002
12	18078	12.661827398394	1.002
12	18206	12.711827398394	1.002
12	18451	12.761827398394	1.002
12	18579	12.811827398394	1.002
12	18823	12.861827398394	1.002
12	18951	12.911827398394	1.002
12	19199	12.961827398394	1.002
12	19327	13.011827398394	1.002
12	19587	13.061827398394	1.002
12	19715	13.111827398394	1.002
12	19958	13.161827398394	1.002
12	20086	13.211827398394	1.002
12	20330	13.261827398394	1.002
12	20458	13.311827398394	1.002
12	20717	13.361827398394	1.002
12	20845	13.411827398394	1.002
12	21077	13.461827398394	1.002
12	21205	13.511827398394	1.002
12	21453	13.561827398394	1.002
12	21581	13.611827398394	1.002
12	21825	13.661827398394	1.002
12	21953	13.711827398394	1.002
12	22196	13.761827398394	1.002
12	22324	13.811827398394	1.002
12	22583	13.861827398394	1.002
12	22711	13.911827398394	1.002
12	22970	13.961827398394	1.002
12	23098	14.011827398394	1.002
12	23357	14.061827398394	1.002
12	23485	14.111827398394	1.002
12	23744	14.161827398394	1.002
12	23872	14.211827398394	1.002
12	24131	14.261827398394	1.002
12	24259	14.311827398394	1.002
12	24507	14.361827398394	1.002
12	24635	14.411827398394	1.002
12	24895	14.461827398394	1.002
12	25023	14.511827398394	1.002
12	25282	14.561827398394	1.002
12	25410	14.611827398394	1.002
12	25653	14.661827398394	1.002
12	25781	14.711827398394	1.002
12	26029	14.761827398394	1.002
12	26157	14.811827398394	1.002
12	26400	14.861827398394	1.002
12	26528	14.911827398394	1.002
12	26771	14.961827398394	1.002
12	26899	15.011827398394	1.002
12	27142	15.061827398394	1.002
12	27270	15.111827398394	1.002
12	27529	15.161827398394	1.002
12	27657	15.211827398394	1.002
12	27916	15.261827398394	1.002
12	28044	15.311827398394	1.002
12	28303	15.361827398394	1.002
12	28431	15.411827398394	1.002
12	28668	15.461827398394	1.002
12	28796	15.511827398394	1.002
12	29055	15.561827398394	1.002
12	29183	15.611827398394	1.002
12	29442	15.661827398394	1.002
12	29570	15.711827398394	1.002
12	29829	15.761827398394	1.002
12	29957	15.811827398394	1.002
12	30216	15.861827398394	1.002
12	30344	15.911827398394	1.002
12	30587	15.961827398394	1.002
12	30715	16.011827398394	1.002
12	30963	16.061827398394	1.002
12	31091	16.111827398394	1.002
12	31339	16.161827398394	1.002
12	31467	16.211827398394	1.002
12	31726	16.261827398394	1.002
12	31854	16.311827398394	1.002
12	32097	16.361827398394	1.002
12	32225	16.411827398394	1.002
12	32468	16.461827398394	1.002
12	32596	16.511827398394	1.002
12	32855	16.561827398394	1.002
12	32983	16.611827398394	1.002
12	33242	16.661827398394	1.002
12	33370	16.711827398394	1.002
12	33602	16.761827398394	1.002
12	33730	16.811827398394	1.002
12	33978	16.861827398394	1.002
12	34106	16.911827398394	1.002
12	34349	16.961827398394	1.002
12	34477	17.011827398394	1.002
12	34720	17.061827398394	1.002
12	34848	17.111827398394	1.002
12	35107	17.161827398394	1.002
12	35235	17.211827398394	1.002
12	35483	17.261827398394	1.002
12	35611	17.311827398394	1.002
12	35854	17.361827398394	1.002
12	35982	17.411827398394	1.002
12	36230	17.461827398394	1.002
12	36358	17.511827398394	1.002
12	36617	17.561827398394	1.002
12	36745	17.611827398394	1.002
12	37004	17.661827398394	1.002
12	37132	17.711827398394	1.002
12	37375	17.761827398394	1.002
12	37503	17.811827398394	1.002
12	37746	17.861827398394	1.002
12	37874	17.911827398394	1.002
12	38133	17.961827398394	1.002
12	38261	18.011827398394	1.002
12	38509	18.061827398394	1.002
12	38637	18.111827398394	1.002
12	38880	18.161827398394	1.002
12	39008	18.211827398394	1.002
12	39251	18.261827398394	1.002
12	39379	18.311827398394	1.002
12	39638	18.361827398394	1.002
12	39766	18.411827398394	1.002
12	40014	18.461827398394	1.002
12	40142	18.511827398394	1.002
12	40401	18.561827398394	1.002
12	40529	18.611827398394	1.002
12	40788	18.661827398394	1.002
12	40916	18.711827398394	1.002
12	41175	18.761827398394	1.002
12	41303	18.811827398394	1.002
12	41551	18.861827398394	1.002
12	41679	18.911827398394	1.002
12	41922	18.961827398394	1.002
12	42050	19.011827398394	1.002
12	42309	19.061827398394	1.002
12	42437	19.111827398394	1.002
12	42685	19.161827398394	1.002
12	42813	19.211827398394	1.002
12	43056	19.261827398394	1.002
12	43184	19.311827398394	1.002
12	43443	19.361827398394	1.002
12	43571	19.411827398394	1.002
12	43830	19.461827398394	1.002
12	43958	19.511827398394	1.002
12	44206	19.561827398394	1.002
12	44334	19.611827398394	1.002
12	44593	19.661827398394	1.002
12	44721	19.711827398394	1.002
12	44980	19.761827398394	1.002
12	45108	19.811827398394	1.002
12	45367	19.861827398394	1.002
12	45495	19.911827398394	1.002
12	45743	19.961827398394	1.002
12	45871	20.011827398394	1.002
12	46114	20.061827398394	1.002
12	46242	20.111827398394	1.002
12	46501	20.161827398394	1.002
12	46629	20.211827398394	1.002
12	46872	20.261827398394	1.002
12	47000	20.311827398394	1.002
12	47259	20.361827398394	1.002
12	47387	20.411827398394	1.002
12	47646	20.461827398394	1.002
12	47774	20.511827398394	1.002
12	48049	20.561827398394	1.002
12	48177	20.611827398394	1.002
12	48425	20.661827398394	1.002
12	48553	20.711827398394	1.002
12	48796	20.761827398394	1.002
12	48924	20.811827398394	1.002
12	49172	20.861827398394	1.002
12	49300	20.911827398394	1.002
12	49548	20.961827398394	1.002
12	49676	21.011827398394	1.002
12	49919	21.061827398394	1.002
12	50047	21.111827398394	1.002
12	50322	21.161827398394	1.002
12	50450	21.211827398394	1.002
12	50698	21.261827398394	1.002
12	50826	21.311827398394	1.002
12	51085	21.361827398394	1.002
12	51213	21.411827398394	1.002
12	51461	21.461827398394	1.002
12	51589	21.511827398394	1.002
12	51848	21.561827398394	1.002
12	51976	21.611827398394	1.002
12	52251	21.661827398394	1.002
12	52379	21.711827398394	1.002
12	52622	21.761827398394	1.002
12	52750	21.811827398394	1.002
12	52993	21.861827398394	1.002
12	53121	21.911827398394	1.002
12	53369	21.961827398394	1.002
12	53497	22.011827398394	1.002
12	53729	22.061827398394	1.002
12	53857	22.111827398394	1.002
12	54116	22.161827398394	1.002
12	54244	22.211827398394	1.002
12	54503	22.261827398394	1.002
12	54631	22.311827398394	1.002
12	54879	22.361827398394	1.002
12	55007	22.411827398394	1.002
12	55266	22.461827398394	1.002
12	55394	22.511827398394	1.002
12	55637	22.561827398394	1.002
12	55765	22.611827398394	1.002
12	56024	22.661827398394	1.002
12	56152	22.711827398394	1.002
12	56411	22.761827398394	1.002
12	56539	22.811827398394	1.002
12	56782	22.861827398394	1.002
12	56910	22.911827398394	1.002
12	57169	22.961827398394	1.002
12	57297	23.011827398394	1.002
12	57556	23.061827398394	1.002
12	57684	23.111827398394	1.002
12	57943	23.161827398394	1.002
12	58071	23.211827398394	1.002
12	58330	23.261827398394	1.002
12	58458	23.311827398394	1.002
12	58717	23.361827398394	1.002
12	58845	23.411827398394	1.002
12	59104	23.461827398394	1.002
12	59232	23.511827398394	1.002
12	59480	23.561827398394	1.002
12	59608	23.611827398394	1.002
12	59851	23.661827398394	1.002
12	59979	23.711827398394	1.002
12	60238	23.761827398394	1.002
12	60366	23.811827398394	1.002
12	60609	23.861827398394	1.002
12	60737	23.911827398394	1.002
12	60996	23.961827398394	1.002
12	61124	24.011827398394	1.002
12	61383	24.061827398394	1.002
12	61511	24.111827398394	1.002
12	61770	24.161827398394	1.002
12	61898	24.211827398394	1.002
12	62157	24.261827398394	1.002
12	62285	24.311827398394	1.002
12	62528	24.361827398394	1.002
12	62656	24.411827398394	1.002
12	62915	24.461827398394	1.002
12	63043	24.511827398394	1.002
12	63302	24.561827398394	1.002
12	63430	24.611827398394	1.002
12	63689	24.661827398394	1.002
12	63817	24.711827398394	1.002
12	64065	24.761827398394	1.002
12	64193	24.811827398394	1.002
12	64436	24.861827398394	1.002
12	64564	24.911827398394	1.002
12	64801	24.961827398394	1.002
12	64929	25.011827398394	1.002
12	65188	25.061827398394	1.002
12	65316	25.111827398394	1.002
12	65575	25.161827398394	1.002
12	65703	25.211827398394	1.002
12	65946	25.261827398394	1.002
12	66074	25.311827398394	1.002
12	66333	25.361827398394	1.002
12	66461	25.411827398394	1.002
12	66720	25.461827398394	1.002
12	66848	25.511827398394	1.002
12	67096	25.561827398394	1.002
12	67224	25.611827398394	1.002
12	67472	25.661827398394	1.002
12	67600	25.711827398394	1.002
12	67859	25.761827398394	1.002
12	67987	25.811827398394	1.002
12	68246	25.861827398394	1.002
12	68374	25.911827398394	1.002
12	68649	25.961827398394	1.002
12	68777	26.011827398394	1.002
12	69052	26.061827398394	1.002
12	69180	26.111827398394	1.002
12	69423	26.161827398394	1.002
12	69551	26.211827398394	1.002
12	69799	26.261827398394	1.002
12	69927	26.311827398394	1.002
12	70170	26.361827398394	1.002
12	70298	26.411827398394	1.002
12	70546	26.461827398394	1.002
12	70674	26.511827398394	1.002
12	70922	26.561827398394	1.002
12	71050	26.611827398394	1.002
12	71293	26.661827398394	1.002
12	71421	26.711827398394	1.002
12	71664	26.761827398394	1.002
12	71792	26.811827398394	1.002
12	72029	26.861827398394	1.002
12	72157	26.911827398394	1.002
12	72405	26.961827398394	1.002
12	72533	27.011827398394	1.002
12	72781	27.061827398394	1.002
12	72909	27.111827398394	1.002
12	73157	27.161827398394	1.002
12	73285	27.211827398394	1.002
12	73544	27.261827398394	1.002
12	73672	27.311827398394	1.002
12	73931	27.361827398394	1.002
12	74059	27.411827398394	1.002
12	74318	27.461827398394	1.002
12	74446	27.511827398394	1.002
12	74689	27.561827398394	1.002
12	74817	27.611827398394	1.002
12	75076	27.661827398394	1.002
12	75204	27.711827398394	1.002
12	75463	27.761827398394	1.002
12	75591	27.811827398394	1.002
12	75823	27.861827398394	1.002
12	75951	27.911827398394	1.002
12	76199	27.961827398394	1.002
12	76327	28.011827398394	1.002
12	76575	28.061827398394	1.002
12	76703	28.111827398394	1.002
12	76946	28.161827398394	1.002
12	77074	28.211827398394	1.002
12	77333	28.261827398394	1.002
12	77461	28.311827398394	1.002
12	77720	28.361827398394	1.002
12	77848	28.411827398394	1.002
12	78091	28.461827398394	1.002
12	78219	28.511827398394	1.002
12	78478	28.561827398394	1.002
12	78606	28.611827398394	1.002
12	78865	28.661827398394	1.002
12	78993	28.711827398394	1.002
12	79241	28.761827398394	1.002
12	79369	28.811827398394	1.002
12	79612	28.861827398394	1.002
12	79740	28.911827398394	1.002
12	79988	28.961827398394	1.002
12	80116	29.011827398394	1.002
12	80375	29.061827398394	1.002
12	80503	29.111827398394	1.002
12	80762	29.161827398394	1.002
12	80890	29.211827398394	1.002
12	81149	29.261827398394	1.002
12	81277	29.311827398394	1.002
12	81525	29.361827398394	1.002
12	81653	29.411827398394	1.002
12	81912	29.461827398394	1.002
12	82040	29.511827398394	1.002
12	82283	29.561827398394	1.002
12	82411	29.611827398394	1.002
12	82670	29.661827398394	1.002
12	82798	29.711827398394	1.002
12	83057	29.761827398394	1.002
12	83185	29.811827398394	1.002
12	83444	29.861827398394	1.002
12	83572	29.911827398394	1.002
12	83831	29.961827398394	1.002
12	83959	30.011827398394	1.002
12	84202	30.061827398394	1.002
12	84330	30.111827398394	1.002
12	84573	30.161827398394	1.002
12	84701	30.211827398394	1.002
12	84960	30.261827398394	1.002
12	85088	30.311827398394	1.002
12	85347	30.361827398394	1.002
12	85475	30.411827398394	1.002
12	85750	30.461827398394	1.002
12	85878	30.511827398394	1.002
12	86137	30.561827398394	1.002
12	86265	30.611827398394	1.002
12	86508	30.661827398394	1.002
12	86636	30.711827398394	1.002
12	86895	30.761827398394	1.002
12	87023	30.811827398394	1.002
12	87271	30.861827398394	1.002
12	87399	30.911827398394	1.002
12	87658	30.961827398394	1.002
12	87786	31.011827398394	1.002
12	88045	31.061827398394	1.002
12	88173	31.111827398394	1.002
12	88432	31.161827398394	1.002
12	88560	31.211827398394	1.002
12	88808	31.261827398394	1.002
12	88936	31.311827398394	1.002
12	89179	31.361827398394	1.002
12	89307	31.411827398394	1.002
12	89566	31.461827398394	1.002
12	89694	31.511827398394	1.002
12	89937	31.561827398394	1.002
12	90065	31.611827398394	1.002
12	90324	31.661827398394	1.002
12	90452	31.711827398394	1.002
12	90700	31.761827398394	1.002
12	90828	31.811827398394	1.002
12	91087	31.861827398394	1.002
12	91215	31.911827398394	1.002
12	91458	31.961827398394	1.002
12	91586	32.011827398394	1.002
12	91845	32.061827398394	1.002
12	91973	32.111827398394	1.002
12	92221	32.161827398394	1.002
12	92349	32.211827398394	1.002
12	92608	32.261827398394	1.002
12	92736	32.311827398394	1.002
12	92984	32.361827398394	1.002
12	93112	32.411827398394	1.002
12	93371	32.461827398394	1.002
12	93499	32.511827398394	1.002
12	93758	32.561827398394	1.002
12	93886	32.611827398394	1.002
12	94134	32.661827398394	1.002
12	94262	32.711827398394	1.002
12	94537	32.761827398394	1.002
12	94665	32.811827398394	1.002
12	94924	32.861827398394	1.002
12	95052	32.911827398394	1.002
12	95284	32.961827398394	1.002
12	95412	33.011827398394	1.002
12	95671	33.061827398394	1.002
12	95799	33.111827398394	1.002
12	96058	33.161827398394	1.002
12	96186	33.211827398394	1.002
12	96434	33.261827398394	1.002
12	96562	33.311827398394	1.002
12	96805	33.361827398394	1.002
12	96933	33.411827398394	1.002
12	97176	33.461827398394	1.002
12	97304	33.511827398394	1.002
12	97547	33.561827398394	1.002
12	97675	33.611827398394	1.002
12	97923	33.661827398394	1.002
12	98051	33.711827398394	1.002
12	98326	33.761827398394	1.002
12	98454	33.811827398394	1.002
12	98713	33.861827398394	1.002
12	98841	33.911827398394	1.002
12	99100	33.961827398394	1.002
12	99228	34.011827398394	1.002
12	99487	34.061827398394	1.002
12	99615	34.111827398394	1.002
12	99874	34.161827398394	1.002
12	100002	34.211827398394	1.002
12	100261	34.261827398394	1.002
12	100389	34.311827398394	1.002
12	100632	34.361827398394	1.002
12	100760	34.411827398394	1.002
12	101008	34.461827398394	1.002
12	101136	34.511827398394	1.002
12	101384	34.561827398394	1.002
12	101512	34.611827398394	1.002
12	101771	34.661827398394	1.002
12	101899	34.711827398394	1.002
12	102158	34.761827398394	1.002
12	102286	34.811827398394	1.002
12	102545	34.861827398394	1.002
12	102673	34.911827398394	1.002
12	102932	34.961827398394	1.002
12	103060	35.011827398394	1.002
12	103335	35.061827398394	1.002
12	103463	35.111827398394	1.002
12	103711	35.161827398394	1.002
12	103839	35.211827398394	1.002
12	104087	35.261827398394	1.002
12	104215	35.311827398394	1.002
12	104474	35.361827398394	1.002
12	104602	35.411827398394	1.002
12	104850	35.461827398394	1.002
12	104978	35.511827398394	1.002
12	105221	35.561827398394	1.002
12	105349	35.611827398394	1.002
12	105608	35.661827398394	1.002
12	105736	35.711827398394	1.002
12	105984	35.761827398394	1.002
12	106112	35.811827398394	1.002
12	106355	35.861827398394	1.002
12	106483	35.911827398394	1.002
12	106742	35.961827398394	1.002
12	106870	36.011827398394	1.002
12	107113	36.061827398394	1.002
12	107241	36.111827398394	1.002
12	107500	36.161827398394	1.002
12	107628	36.211827398394	1.002
12	107887	36.261827398394	1.002
12	108015	36.311827398394	1.002
12	108274	36.361827398394	1.002
12	108402	36.411827398394	1.002
12	108645	36.461827398394	1.002
12	108773	36.511827398394	1.002
12	109048	36.561827398394	1.002
12	109176	36.611827398394	1.002
12	109435	36.661827398394	1.002
12	109563	36.711827398394	1.002
12	109806	36.761827398394	1.002
12	109934	36.811827398394	1.002
12	110182	36.861827398394	1.002
12	110310	36.911827398394	1.002
12	110569	36.961827398394	1.002
12	110697	37.011827398394	1.002
12	110956	37.061827398394	1.002
12	111084	37.111827398394	1.002
12	111327	37.161827398394	1.002
12	111455	37.211827398394	1.002
12	111714	37.261827398394	1.002
12	111842	37.311827398394	1.002
12	112101	37.361827398394	1.002
12	112229	37.411827398394	1.002
12	112488	37.461827398394	1.002
12	112616	37.511827398394	1.002
12	112859	37.561827398394	1.002
12	112987	37.611827398394	1.002
12	113230	37.661827398394	1.002
12	113358	37.711827398394	1.002
12	113601	37.761827398394	1.002
12	113729	37.811827398394	1.002
12	113977	37.861827398394	1.002
12	114105	37.911827398394	1.002
12	114364	37.961827398394	1.002
12	114492	38.011827398394	1.002
12	114724	38.061827398394	1.002
12	114852	38.111827398394	1.002
12	115100	38.161827398394	1.002
12	115228	38.211827398394	1.002
12	115487	38.261827398394	1.002
12	115615	38.311827398394	1.002
12	115863	38.361827398394	1.002
12	115991	38.411827398394	1.002
12	116239	38.461827398394	1.002
12	116367	38.511827398394	1.002
12	116615	38.561827398394	1.002
12	116743	38.611827398394	1.002
12	117002	38.661827398394	1.002
12	117130	38.711827398394	1.002
12	117389	38.761827398394	1.002
12	117517	38.811827398394	1.002
12	117776	38.861827398394	1.002
12	117904	38.911827398394	1.002
12	118152	38.961827398394	1.002
12	118280	39.011827398394	1.002
12	118523	39.061827398394	1.002
12	118651	39.111827398394	1.002
12	118910	39.161827398394	1.002
12	119038	39.211827398394	1.002
12	119286	39.261827398394	1.002
12	119414	39.311827398394	1.002
12	119673	39.361827398394	1.002
12	119801	39.411827398394	1.002
12	120049	39.461827398394	1.002
12	120177	39.511827398394	1.002
12	120425	39.561827398394	1.002
12	120553	39.611827398394	1.002
12	120796	39.661827398394	1.002
12	120924	39.711827398394	1.002
12	121167	39.761827398394	1.002
12	121295	39.811827398394	1.002
12	121538	39.861827398394	1.002
12	121666	39.911827398394	1.002
12	121925	39.961827398394	1.002
12	122053	40.011827398394	1.002
12	122312	40.061827398394	1.002
12	122440	40.111827398394	1.002
12	122683	40.161827398394	1.002
12	122811	40.211827398394	1.002
12	123070	40.261827398394	1.002
12	123198	40.311827398394	1.002
12	123441	40.361827398394	1.002
12	123569	40.411827398394	1.002
12	123817	40.461827398394	1.002
12	123945	40.511827398394	1.002
12	124204	40.561827398394	1.002
12	124332	40.611827398394	1.002
12	124575	40.661827398394	1.002
12	124703	40.711827398394	1.002
12	124951	40.761827398394	1.002
12	125079	40.811827398394	1.002
12	125338	40.861827398394	1.002
12	125466	40.911827398394	1.002
12	125725	40.961827398394	1.002
12	125853	41.011827398394	1.002
12	126112	41.061827398394	1.002
12	126240	41.111827398394	1.002
12	126483	41.161827398394	1.002
12	126611	41.211827398394	1.002
12	126870	41.261827398394	1.002
12	126998	41.311827398394	1.002
12	127257	41.361827398394	1.002
12	127385	41.411827398394	1.002
12	127628	41.461827398394	1.002
12	127756	41.511827398394	1.002
12	127999	41.561827398394	1.002
12	128127	41.611827398394	1.002
12	128370	41.661827398394	1.002
12	128498	41.711827398394	1.002
12	128746	41.761827398394	1.002
12	128874	41.811827398394	1.002
12	129133	41.861827398394	1.002
12	129261	41.911827398394	1.002
12	129520	41.961827398394	1.002
12	129648	42.011827398394	1.002
12	129907	42.061827398394	1.002
12	130035	42.111827398394	1.002
12	130278	42.161827398394	1.002
12	130406	42.211827398394	1.002
12	130665	42.261827398394	1.002
12	130793	42.311827398394	1.002
12	131052	42.361827398394	1.002
12	131180	42.411827398394	1.002
12	131423	42.461827398394	1.002
12	131551	42.511827398394	1.002
12	131794	42.561827398394	1.002
12	131922	42.611827398394	1.002
12	132170	42.661827398394	1.002
12	132298	42.711827398394	1.002
12	132557	42.761827398394	1.002
12	132685	42.811827398394	1.002
12	132933	42.861827398394	1.002
12	133061	42.911827398394	1.002
12	133320	42.961827398394	1.002
12	133448	43.011827398394	1.002
12	133723	43.061827398394	1.002
12	133851	43.111827398394	1.002
12	134110	43.161827398394	1.002
12	134238	43.211827398394	1.002
12	134470	43.261827398394	1.002
12	134598	43.311827398394	1.002
12	134846	43.361827398394	1.002
12	134974	43.411827398394	1.002
12	135222	43.461827398394	1.002
12	135350	43.511827398394	1.002
12	135593	43.561827398394	1.002
12	135721	43.611827398394	1.002
12	135969	43.661827398394	1.002
12	136097	43.711827398394	1.002
12	136356	43.761827398394	1.002
12	136484	43.811827398394	1.002
12	136727	43.861827398394	1.002
12	136855	43.911827398394	1.002
12	137114	43.961827398394	1.002
12	137242	44.011827398394	1.002
12	137501	44.061827398394	1.002
12	137629	44.111827398394	1.002
12	137877	44.161827398394	1.002
12	138005	44.211827398394	1.002
12	138253	44.261827398394	1.002
12	138381	44.311827398394	1.002
12	138624	44.361827398394	1.002
12	138752	44.411827398394	1.002
12	138995	44.461827398394	1.002
12	139123	44.511827398394	1.002
12	139382	44.561827398394	1.002
12	139510	44.611827398394	1.002
12	139742	44.661827398394	1.002
12	139870	44.711827398394	1.002
12	140113	44.761827398394	1.002
12	140241	44.811827398394	1.002
12	140500	44.861827398394	1.002
12	140628	44.911827398394	1.002
12	140887	44.961827398394	1.002
12	141015	45.011827398394	1.002
12	141274	45.061827398394	1.002
12	141402	45.111827398394	1.002
12	141650	45.161827398394	1.002
12	141778	45.211827398394	1.002
12	142053	45.261827398394	1.002
12	142181	45.311827398394	1.002
12	142429	45.361827398394	1.002
12	142557	45.411827398394	1.002
12	142800	45.461827398394	1.002
12	142928	45.511827398394	1.002
12	143176	45.561827398394	1.002
12	143304	45.611827398394	1.002
12	143563	45.661827398394	1.002
12	143691	45.711827398394	1.002
12	143950	45.761827398394	1.002
12	144078	45.811827398394	1.002
12	144337	45.861827398394	1.002
12	144465	45.911827398394	1.002
12	144724	45.961827398394	1.002
12	144852	46.011827398394	1.002
12	145100	46.061827398394	1.002
12	145228	46.111827398394	1.002
12	145465	46.161827398394	1.002
12	145593	46.211827398394	1.002
12	145868	46.261827398394	1.002
12	145996	46.311827398394	1.002
12	146244	46.361827398394	1.002
12	146372	46.411827398394	1.002
12	146620	46.461827398394	1.002
12	146748	46.511827398394	1.002
12	147007	46.561827398394	1.002
12	147135	46.611827398394	1.002
12	147394	46.661827398394	1.002
12	147522	46.711827398394	1.002
12	147781	46.761827398394	1.002
12	147909	46.811827398394	1.002
12	148168	46.861827398394	1.002
12	148296	46.911827398394	1.002
12	148544	46.961827398394	1.002
12	148672	47.011827398394	1.002
12	148931	47.061827398394	1.002
12	149059	47.111827398394	1.002
12	149318	47.161827398394	1.002
12	149446	47.211827398394	1.002
12	149694	47.261827398394	1.002
12	149822	47.311827398394	1.002
12	150065	47.361827398394	1.002
12	150193	47.411827398394	1.002
12	150436	47.461827398394	1.002
12	150564	47.511827398394	1.002
12	150823	47.561827398394	1.002
12	150951	47.611827398394	1.002
12	151194	47.661827398394	1.002
12	151322	47.711827398394	1.002
12	151565	47.761827398394	1.002
12	151693	47.811827398394	1.002
12	151941	47.861827398394	1.002
12	152069	47.911827398394	1.002
12	152328	47.961827398394	1.002
12	152456	48.011827398394	1.002
12	152715	48.061827398394	1.002
12	152843	48.111827398394	1.002
12	153086	48.161827398394	1.002
12	153214	48.211827398394	1.002
12	153462	48.261827398394	1.002
12	153590	48.311827398394	1.002
12	153849	48.361827398394	1.002
12	153977	48.411827398394	1.002
12	154236	48.461827398394	1.002
12	154364	48.511827398394	1.002
12	154623	48.561827398394	1.002
12	154751	48.611827398394	1.002
12	155010	48.661827398394	1.002
12	155138	48.711827398394	1.002
12	155397	48.761827398394	1.002
12	155525	48.811827398394	1.002
12	155784	48.861827398394	1.002
12	155912	48.911827398394	1.002
12	156160	48.961827398394	1.002
12	156288	49.011827398394	1.002
12	156536	49.061827398394	1.002
12	156664	49.111827398394	1.002
12	156923	49.161827398394	1.002
12	157051	49.211827398394	1.002
12	157310	49.261827398394	1.002
12	157438	49.311827398394	1.002
12	157697	49.361827398394	1.002
12	157825	49.411827398394	1.002
12	158084	49.461827398394	1.002
12	158212	49.511827398394	1.002
12	158471	49.561827398394	1.002
12	158599	49.611827398394	1.002
12	158858	49.661827398394	1.002
12	158986	49.711827398394	1.002
12	159229	49.761827398394	1.002
12	159357	49.811827398394	1.002
12	159616	49.861827398394	1.002
12	159744	49.911827398394	1.002
12	159987	49.961827398394	1.002
12	160115	50.011827398394	1.002
12	160374	50.061827398394	1.002
12	160502	50.111827398394	1.002
12	160761	50.161827398394	1.002
12	160889	50.211827398394	1.002
12	161132	50.261827398394	1.002
12	161260	50.311827398394	1.002
12	161503	50.361827398394	1.002
12	161631	50.411827398394	1.002
12	161874	50.461827398394	1.002
12	162002	50.511827398394	1.002
12	162245	50.561827398394	1.002
12	162373	50.611827398394	1.002
12	162621	50.661827398394	1.002
12	162749	50.711827398394	1.002
12	162997	50.761827398394	1.002
12	163125	50.811827398394	1.002
12	163373	50.861827398394	1.002
12	163501	50.911827398394	1.002
12	163749	50.961827398394	1.002
12	163877	51.011827398394	1.002
12	164120	51.061827398394	1.002
12	164248	51.111827398394	1.002
12	164523	51.161827398394	1.002
12	164651	51.211827398394	1.002
12	164899	51.261827398394	1.002
12	165027	51.311827398394	1.002
12	165286	51.361827398394	1.002
12	165414	51.411827398394	1.002
12	165657	51.461827398394	1.002
12	165785	51.511827398394	1.002
12	166044	51.561827398394	1.002
12	166172	51.611827398394	1.002
12	166420	51.661827398394	1.002
12	166548	51.711827398394	1.002
12	166807	51.761827398394	1.002
12	166935	51.811827398394	1.002
12	167183	51.861827398394	1.002
12	167311	51.911827398394	1.002
12	167570	51.961827398394	1.002
12	167698	52.011827398394	1.002
12	167957	52.061827398394	1.002
12	168085	52.111827398394	1.002
12	168344	52.161827398394	1.002
12	168472	52.211827398394	1.002
12	168731	52.261827398394	1.002
12	168859	52.311827398394	1.002
12	169118	52.361827398394	1.002
12	169246	52.411827398394	1.002
12	169505	52.461827398394	1.002
12	169633	52.511827398394	1.002
12	169892	52.561827398394	1.002
12	170020	52.611827398394	1.002
12	170279	52.661827398394	1.002
12	170407	52.711827398394	1.002
12	170655	52.761827398394	1.002
12	170783	52.811827398394	1.002
12	171031	52.861827398394	1.002
12	171159	52.911827398394	1.002
12	171391	52.961827398394	1.002
12	171519	53.011827398394	1.002
12	171762	53.061827398394	1.002
12	171890	53.111827398394	1.002
12	172133	53.161827398394	1.002
12	172261	53.211827398394	1.002
12	172509	53.261827398394	1.002
12	172637	53.311827398394	1.002
12	172880	53.361827398394	1.002
12	173008	53.411827398394	1.002
12	173267	53.461827398394	1.002
12	173395	53.511827398394	1.002
12	173643	53.561827398394	1.002
12	173771	53.611827398394	1.002
12	174030	53.661827398394	1.002
12	174158	53.711827398394	1.002
12	174417	53.761827398394	1.002
12	174545	53.811827398394	1.002
12	174804	53.861827398394	1.002
12	174932	53.911827398394	1.002
12	175191	53.961827398394	1.002
12	175319	54.011827398394	1.002
12	175578	54.061827398394	1.002
12	175706	54.111827398394	1.002
12	175949	54.161827398394	1.002
12	176077	54.211827398394	1.002
12	176336	54.261827398394	1.002
12	176464	54.311827398394	1.002
12	176723	54.361827398394	1.002
12	176851	54.411827398394	1.002
12	177099	54.461827398394	1.002
12	177227	54.511827398394	1.002
12	177486	54.561827398394	1.002
12	177614	54.611827398394	1.002
12	177873	54.661827398394	1.002
12	178001	54.711827398394	1.002
12	178260	54.761827398394	1.002
12	178388	54.811827398394	1.002
12	178636	54.861827398394	1.002
12	178764	54.911827398394	1.002
12	179023	54.961827398394	1.002
12	179151	55.011827398394	1.002
12	179426	55.061827398394	1.002
12	179554	55.111827398394	1.002
12	179813	55.161827398394	1.002
12	179941	55.211827398394	1.002
12	180184	55.261827398394	1.002
12	180312	55.311827398394	1.002
12	180555	55.361827398394	1.002
12	180683	55.411827398394	1.002
12	180942	55.461827398394	1.002
12	181070	55.511827398394	1.002
12	181329	55.561827398394	1.002
12	181457	55.611827398394	1.002
12	181716	55.661827398394	1.002
12	181844	55.711827398394	1.002
12	182092	55.761827398394	1.002
12	182220	55.811827398394	1.002
12	182468	55.861827398394	1.002
12	182596	55.911827398394	1.002
12	182855	55.961827398394	1.002
12	182983	56.011827398394	1.002
12	183226	56.061827398394	1.002
12	183354	56.111827398394	1.002
12	183597	56.161827398394	1.002
12	183725	56.211827398394	1.002
12	183973	56.261827398394	1.002
12	184101	56.311827398394	1.002
12	184344	56.361827398394	1.002
12	184472	56.411827398394	1.002
12	184747	56.461827398394	1.002
12	184875	56.511827398394	1.002
12	185134	56.561827398394	1.002
12	185262	56.611827398394	1.002
12	185499	56.661827398394	1.002
12	185627	56.711827398394	1.002
12	185886	56.761827398394	1.002
12	186014	56.811827398394	1.002
12	186246	56.861827398394	1.002
12	186374	56.911827398394	1.002
12	186617	56.961827398394	1.002
12	186745	57.011827398394	1.002
12	187004	57.061827398394	1.002
12	187132	57.111827398394	1.002
12	187380	57.161827398394	1.002
12	187508	57.211827398394	1.002
12	187756	57.261827398394	1.002
12	187884	57.311827398394	1.002
12	188143	57.361827398394	1.002
12	188271	57.411827398394	1.002
12	188530	57.461827398394	1.002
12	188658	57.511827398394	1.002
12	188917	57.561827398394	1.002
12	189045	57.611827398394	1.002
12	189304	57.661827398394	1.002
12	189432	57.711827398394	1.002
12	189680	57.761827398394	1.002
12	189808	57.811827398394	1.002
12	190045	57.861827398394	1.002
12	190173	57.911827398394	1.002
12	190421	57.961827398394	1.002
12	190549	58.011827398394	1.002
12	190824	58.061827398394	1.002
12	190952	58.111827398394	1.002
12	191211	58.161827398394	1.002
12	191339	58.211827398394	1.002
12	191598	58.261827398394	1.002
12	191726	58.311827398394	1.002
12	191985	58.361827398394	1.002
12	192113	58.411827398394	1.002
12	192356	58.461827398394	1.002
12	192484	58.511827398394	1.002
12	192716	58.561827398394	1.002
12	192844	58.611827398394	1.002
12	193087	58.661827398394	1.002
12	193215	58.711827398394	1.002
12	193463	58.761827398394	1.002
12	193591	58.811827398394	1.002
12	193850	58.861827398394	1.002
12	193978	58.911827398394	1.002
12	194237	58.961827398394	1.002
12	194365	59.011827398394	1.002
12	194624	59.061827398394	1.002
12	194752	59.111827398394	1.002
12	195011	59.161827398394	1.002
12	195139	59.211827398394	1.002
12	195414	59.261827398394	1.002
12	195542	59.311827398394	1.002
12	195801	59.361827398394	1.002
12	195929	59.411827398394	1.002
12	196166	59.461827398394	1.002
12	196294	59.511827398394	1.002
12	196542	59.561827398394	1.002
12	196670	59.611827398394	1.002
12	196918	59.661827398394	1.002
12	197046	59.711827398394	1.002
12	197289	59.761827398394	1.002
12	197417	59.811827398394	1.002
12	197665	59.861827398394	1.002
12	197793	59.911827398394	1.002
12	198041	59.961827398394	1.002
12	198169	60.011827398394	1.002
12	198428	60.061827398394	1.002
12	198556	60.111827398394	1.002
12	198815	60.161827398394	1.002
12	198943	60.211827398394	1.002
12	199186	60.261827398394	1.002
12	199314	60.311827398394	1.002
12	199573	60.361827398394	1.002
12	199701	60.411827398394	1.002
12	199944	60.461827398394	1.002
12	200072	60.511827398394	1.002
12	200309	60.561827398394	1.002
12	200437	60.611827398394	1.002
12	200680	60.661827398394	1.002
12	200808	60.711827398394	1.002
12	201051	60.761827398394	1.002
12	201179	60.811827398394	1.002
12	201438	60.861827398394	1.002
12	201566	60.911827398394	1.002
12	201825	60.961827398394	1.002
12	201953	61.011827398394	1.002
12	202212	61.061827398394	1.002
12	202340	61.111827398394	1.002
12	202588	61.161827398394	1.002
12	202716	61.211827398394	1.002
12	202964	61.261827398394	1.002
12	203092	61.311827398394	1.002
12	203335	61.361827398394	1.002
12	203463	61.411827398394	1.002
12	203706	61.461827398394	1.002
12	203834	61.511827398394	1.002
12	204082	61.561827398394	1.002
12	204210	61.611827398394	1.002
12	204453	61.661827398394	1.002
11	27	0.561827398394	1
11	45	0.611827398394	2
11	62	0.661827398394	3
11	80	0.711827398394	4
11	97	0.761827398394	5
11	115	0.811827398394	6
11	132	0.861827398394	7
11	150	0.911827398394	8
11	167	0.961827398394	9
11	185	1.011827398394	10
11	202	1.061827398394	11
11	220	1.111827398394	12
11	237	1.161827398394	13
11	255	1.211827398394	14
11	272	1.261827398394	15
11	290	1.311827398394	16
11	307	1.361827398394	17
11	325	1.411827398394	18
11	342	1.461827398394	19
11	360	1.511827398394	20
11	377	1.561827398394	21
11	395	1.611827398394	22
11	412	1.661827398394	23
11	430	1.711827398394	24
11	447	1.761827398394	25
11	465	1.811827398394	26
11	482	1.861827398394	27
11	500	1.911827398394	28
11	517	1.961827398394	29
11	535	2.011827398394	30
11	552	2.061827398394	31
11	570	2.111827398394	32
11	587	2.161827398394	33
11	605	2.211827398394	34
11	622	2.261827398394	35
11	640	2.311827398394	36
11	657	2.361827398394	37
11	675	2.411827398394	38
11	692	2.461827398394	39
11	710	2.511827398394	40
11	727	2.561827398394	41
11	745	2.611827398394	42
11	762	2.661827398394	43
11	780	2.711827398394	44
11	797	2.761827398394	45
11	815	2.811827398394	46
11	832	2.861827398394	47
11	850	2.911827398394	48
11	867	2.961827398394	49
11	885	3.011827398394	50
11	902	3.061827398394	51
11	920	3.111827398394	52
11	965	3.161827398394	54
11	992	3.211827398394	56
11	1056	3.261827398394	58
11	1083	3.311827398394	60
11	1147	3.361827398394	62
11	1174	3.411827398394	64
11	1238	3.461827398394	66
11	1265	3.511827398394	68
11	1329	3.561827398394	70
11	1356	3.611827398394	72
11	1420	3.661827398394	74
11	1447	3.711827398394	76
11	1511	3.761827398394	78
11	1538	3.811827398394	80
11	1602	3.861827398394	82
11	1629	3.911827398394	84
11	1693	3.961827398394	86
11	1720	4.011827398394	88
11	1784	4.061827398394	90
11	1811	4.111827398394	92
11	1875	4.161827398394	94
11	1902	4.211827398394	96
11	1966	4.261827398394	98
11	1993	4.311827398394	100
11	2057	4.361827398394	102
11	2084	4.411827398394	104
11	2148	4.461827398394	106
11	2175	4.511827398394	108
11	2239	4.561827398394	110
11	2266	4.611827398394	112
11	2330	4.661827398394	114
11	2357	4.711827398394	116
11	2421	4.761827398394	118
11	2448	4.811827398394	120
11	2512	4.861827398394	122
11	2539	4.911827398394	124
11	2603	4.961827398394	126
11	2630	5.011827398394	128
11	2694	5.061827398394	130
11	2721	5.111827398394	132
11	2785	5.161827398394	134
11	2812	5.211827398394	136
11	2876	5.261827398394	138
11	2903	5.311827398394	140
11	2967	5.361827398394	142
11	2994	5.411827398394	144
11	3058	5.461827398394	146
11	3085	5.511827398394	148
11	3149	5.561827398394	150
11	3176	5.611827398394	152
11	3240	5.661827398394	154
11	3267	5.711827398394	156
11	3331	5.761827398394	158
11	3358	5.811827398394	160
11	3422	5.861827398394	162
11	3449	5.911827398394	164
11	3513	5.961827398394	166
11	3540	6.011827398394	168
11	3604	6.061827398394	170
11	3631	6.111827398394	172
11	3714	6.161827398394	174
11	3748	6.211827398394	176
11	3831	6.261827398394	178
11	3865	6.311827398394	180
11	3948	6.361827398394	182
11	3982	6.411827398394	184
11	4065	6.461827398394	186
11	4099	6.511827398394	188
11	4182	6.561827398394	190
11	4216	6.611827398394	192
11	4299	6.661827398394	194
11	4333	6.711827398394	196
11	4416	6.761827398394	198
11	4450	6.811827398394	200
11	4533	6.861827398394	202
11	4594	6.911827398394	205
11	4704	6.961827398394	208
11	4765	7.011827398394	211
11	4865	7.061827398394	214
11	4926	7.111827398394	217
11	5026	7.161827398394	220
11	5087	7.211827398394	223
11	5197	7.261827398394	226
11	5258	7.311827398394	229
11	5368	7.361827398394	232
11	5429	7.411827398394	235
11	5539	7.461827398394	238
11	5600	7.511827398394	241
11	5710	7.561827398394	244
11	5771	7.611827398394	247
11	5881	7.661827398394	250
11	5942	7.711827398394	253
11	6052	7.761827398394	256
11	6113	7.811827398394	259
11	6223	7.861827398394	262
11	6284	7.911827398394	265
11	6394	7.961827398394	268
11	6455	8.011827398394	271
11	6565	8.061827398394	274
11	6626	8.111827398394	277
11	6736	8.161827398394	280
11	6797	8.211827398394	283
11	6907	8.261827398394	286
11	6968	8.311827398394	289
11	7068	8.361827398394	292
11	7129	8.411827398394	295
11	7239	8.461827398394	298
11	7300	8.511827398394	301
11	7410	8.561827398394	304
11	7471	8.611827398394	307
11	7571	8.661827398394	310
11	7632	8.711827398394	313
11	7742	8.761827398394	316
11	7803	8.811827398394	319
11	7913	8.861827398394	322
11	7974	8.911827398394	325
11	8084	8.961827398394	328
11	8145	9.011827398394	331
11	8255	9.061827398394	334
11	8316	9.111827398394	337
11	8438	9.161827398394	340
11	8512	9.211827398394	343
11	8647	9.261827398394	346
11	8721	9.311827398394	349
11	8856	9.361827398394	352
11	8930	9.411827398394	355
11	9052	9.461827398394	358
11	9126	9.511827398394	361
11	9261	9.561827398394	364
11	9335	9.611827398394	367
11	9457	9.661827398394	370
11	9531	9.711827398394	373
11	9666	9.761827398394	376
11	9773	9.811827398394	380
11	9941	9.861827398394	384
11	10048	9.911827398394	388
11	10203	9.961827398394	392
11	10310	10.011827398394	396
11	10478	10.061827398394	400
11	10585	10.111827398394	404
11	10753	10.161827398394	408
11	10860	10.211827398394	412
11	11028	10.261827398394	416
11	11135	10.311827398394	420
11	11290	10.361827398394	424
11	11397	10.411827398394	428
11	11552	10.461827398394	432
11	11659	10.511827398394	436
11	11814	10.561827398394	440
11	11921	10.611827398394	444
11	12076	10.661827398394	448
11	12183	10.711827398394	452
11	12351	10.761827398394	456
11	12458	10.811827398394	460
11	12613	10.861827398394	464
11	12720	10.911827398394	468
11	12875	10.961827398394	472
11	12982	11.011827398394	476
11	13150	11.061827398394	480
11	13257	11.111827398394	484
11	13412	11.161827398394	488
11	13519	11.211827398394	492
11	13687	11.261827398394	496
11	13794	11.311827398394	500
11	13962	11.361827398394	504
11	14069	11.411827398394	508
11	14237	11.461827398394	512
11	14344	11.511827398394	516
11	14499	11.561827398394	520
11	14606	11.611827398394	524
11	14761	11.661827398394	528
11	14868	11.711827398394	532
11	15023	11.761827398394	536
11	15130	11.811827398394	540
11	15285	11.861827398394	544
11	15392	11.911827398394	548
11	15560	11.961827398394	552
11	15667	12.011827398394	556
11	15835	12.061827398394	560
11	15942	12.111827398394	564
11	16153	12.161827398394	569
11	16281	12.211827398394	574
11	16540	12.261827398394	579
11	16668	12.311827398394	584
11	16927	12.361827398394	589
11	17055	12.411827398394	594
11	17303	12.461827398394	599
11	17431	12.511827398394	604
11	17690	12.561827398394	609
11	17818	12.611827398394	614
11	18078	12.661827398394	619
11	18206	12.711827398394	624
11	18451	12.761827398394	629
11	18579	12.811827398394	634
11	18823	12.861827398394	639
11	18951	12.911827398394	644
11	19199	12.961827398394	649
11	19327	13.011827398394	654
11	19587	13.061827398394	659
11	19715	13.111827398394	664
11	19958	13.161827398394	669
11	20086	13.211827398394	674
11	20330	13.261827398394	679
11	20458	13.311827398394	684
11	20717	13.361827398394	689
11	20845	13.411827398394	694
11	21077	13.461827398394	699
11	21205	13.511827398394	704
11	21453	13.561827398394	709
11	21581	13.611827398394	714
11	21825	13.661827398394	719
11	21953	13.711827398394	724
11	22196	13.761827398394	729
11	22324	13.811827398394	734
11	22583	13.861827398394	739
11	22711	13.911827398394	744
11	22970	13.961827398394	749
11	23098	14.011827398394	754
11	23357	14.061827398394	759
11	23485	14.111827398394	764
11	23744	14.161827398394	769
11	23872	14.211827398394	774
11	24131	14.261827398394	779
11	24259	14.311827398394	784
11	24507	14.361827398394	789
11	24635	14.411827398394	794
11	24895	14.461827398394	799
11	25023	14.511827398394	804
11	25282	14.561827398394	809
11	25410	14.611827398394	814
11	25653	14.661827398394	819
11	25781	14.711827398394	824
11	26029	14.761827398394	829
11	26157	14.811827398394	834
11	26400	14.861827398394	839
11	26528	14.911827398394	844
11	26771	14.961827398394	849
11	26899	15.011827398394	854
11	27142	15.061827398394	859
11	27270	15.111827398394	864
11	27529	15.161827398394	869
11	27657	15.211827398394	874
11	27916	15.261827398394	879
11	28044	15.311827398394	884
11	28303	15.361827398394	889
11	28431	15.411827398394	894
11	28668	15.461827398394	899
11	28796	15.511827398394	904
11	29055	15.561827398394	909
11	29183	15.611827398394	914
11	29442	15.661827398394	919
11	29570	15.711827398394	924
11	29829	15.761827398394	929
11	29957	15.811827398394	934
11	30216	15.861827398394	939
11	30344	15.911827398394	944
11	30587	15.961827398394	949
11	30715	16.011827398394	954
11	30963	16.061827398394	959
11	31091	16.111827398394	964
11	31339	16.161827398394	969
11	31467	16.211827398394	974
11	31726	16.261827398394	979
11	31854	16.311827398394	984
11	32097	16.361827398394	989
11	32225	16.411827398394	994
11	32468	16.461827398394	999
11	32596	16.511827398394	1004
11	32855	16.561827398394	1009
11	32983	16.611827398394	1014
11	33242	16.661827398394	1019
11	33370	16.711827398394	1024
11	33602	16.761827398394	1029
11	33730	16.811827398394	1034
11	33978	16.861827398394	1039
11	34106	16.911827398394	1044
11	34349	16.961827398394	1049
11	34477	17.011827398394	1054
11	34720	17.061827398394	1059
11	34848	17.111827398394	1064
11	35107	17.161827398394	1069
11	35235	17.211827398394	1074
11	35483	17.261827398394	1079
11	35611	17.311827398394	1084
11	35854	17.361827398394	1089
11	35982	17.411827398394	1094
11	36230	17.461827398394	1099
11	36358	17.511827398394	1104
11	36617	17.561827398394	1109
11	36745	17.611827398394	1114
11	37004	17.661827398394	1119
11	37132	17.711827398394	1124
11	37375	17.761827398394	1129
11	37503	17.811827398394	1134
11	37746	17.861827398394	1139
11	37874	17.911827398394	1144
11	38133	17.961827398394	1149
11	38261	18.011827398394	1154
11	38509	18.061827398394	1159
11	38637	18.111827398394	1164
11	38880	18.161827398394	1169
11	39008	18.211827398394	1174
11	39251	18.261827398394	1179
11	39379	18.311827398394	1184
11	39638	18.361827398394	1189
11	39766	18.411827398394	1194
11	40014	18.461827398394	1199
11	40142	18.511827398394	1204
11	40401	18.561827398394	1209
11	40529	18.611827398394	1214
11	40788	18.661827398394	1219
11	40916	18.711827398394	1224
11	41175	18.761827398394	1229
11	41303	18.811827398394	1234
11	41551	18.861827398394	1239
11	41679	18.911827398394	1244
11	41922	18.961827398394	1249
11	42050	19.011827398394	1254
11	42309	19.061827398394	1259
11	42437	19.111827398394	1264
11	42685	19.161827398394	1269
11	42813	19.211827398394	1274
11	43056	19.261827398394	1279
11	43184	19.311827398394	1284
11	43443	19.361827398394	1289
11	43571	19.411827398394	1294
11	43830	19.461827398394	1299
11	43958	19.511827398394	1304
11	44206	19.561827398394	1309
11	44334	19.611827398394	1314
11	44593	19.661827398394	1319
11	44721	19.711827398394	1324
11	44980	19.761827398394	1329
11	45108	19.811827398394	1334
11	45367	19.861827398394	1339
11	45495	19.911827398394	1344
11	45743	19.961827398394	1349
11	45871	20.011827398394	1354
11	46114	20.061827398394	1359
11	46242	20.111827398394	1364
11	46501	20.161827398394	1369
11	46629	20.211827398394	1374
11	46872	20.261827398394	1379
11	47000	20.311827398394	1384
11	47259	20.361827398394	1389
11	47387	20.411827398394	1394
11	47646	20.461827398394	1399
11	47774	20.511827398394	1404
11	48049	20.561827398394	1409
11	48177	20.611827398394	1414
11	48425	20.661827398394	1419
11	48553	20.711827398394	1424
11	48796	20.761827398394	1429
11	48924	20.811827398394	1434
11	49172	20.861827398394	1439
11	49300	20.911827398394	1444
11	49548	20.961827398394	1449
11	49676	21.011827398394	1454
11	49919	21.061827398394	1459
11	50047	21.111827398394	1464
11	50322	21.161827398394	1469
11	50450	21.211827398394	1474
11	50698	21.261827398394	1479
11	50826	21.311827398394	1484
11	51085	21.361827398394	1489
11	51213	21.411827398394	1494
11	51461	21.461827398394	1499
11	51589	21.511827398394	1504
11	51848	21.561827398394	1509
11	51976	21.611827398394	1514
11	52251	21.661827398394	1519
11	52379	21.711827398394	1524
11	52622	21.761827398394	1529
11	52750	21.811827398394	1534
11	52993	21.861827398394	1539
11	53121	21.911827398394	1544
11	53369	21.961827398394	1549
11	53497	22.011827398394	1554
11	53729	22.061827398394	1559
11	53857	22.111827398394	1564
11	54116	22.161827398394	1569
11	54244	22.211827398394	1574
11	54503	22.261827398394	1579
11	54631	22.311827398394	1584
11	54879	22.361827398394	1589
11	55007	22.411827398394	1594
11	55266	22.461827398394	1599
11	55394	22.511827398394	1604
11	55637	22.561827398394	1609
11	55765	22.611827398394	1614
11	56024	22.661827398394	1619
11	56152	22.711827398394	1624
11	56411	22.761827398394	1629
11	56539	22.811827398394	1634
11	56782	22.861827398394	1639
11	56910	22.911827398394	1644
11	57169	22.961827398394	1649
11	57297	23.011827398394	1654
11	57556	23.061827398394	1659
11	57684	23.111827398394	1664
11	57943	23.161827398394	1669
11	58071	23.211827398394	1674
11	58330	23.261827398394	1679
11	58458	23.311827398394	1684
11	58717	23.361827398394	1689
11	58845	23.411827398394	1694
11	59104	23.461827398394	1699
11	59232	23.511827398394	1704
11	59480	23.561827398394	1709
11	59608	23.611827398394	1714
11	59851	23.661827398394	1719
11	59979	23.711827398394	1724
11	60238	23.761827398394	1729
11	60366	23.811827398394	1734
11	60609	23.861827398394	1739
11	60737	23.911827398394	1744
11	60996	23.961827398394	1749
11	61124	24.011827398394	1754
11	61383	24.061827398394	1759
11	61511	24.111827398394	1764
11	61770	24.161827398394	1769
11	61898	24.211827398394	1774
11	62157	24.261827398394	1779
11	62285	24.311827398394	1784
11	62528	24.361827398394	1789
11	62656	24.411827398394	1794
11	62915	24.461827398394	1799
11	63043	24.511827398394	1804
11	63302	24.561827398394	1809
11	63430	24.611827398394	1814
11	63689	24.661827398394	1819
11	63817	24.711827398394	1824
11	64065	24.761827398394	1829
11	64193	24.811827398394	1834
11	64436	24.861827398394	1839
11	64564	24.911827398394	1844
11	64801	24.961827398394	1849
11	64929	25.011827398394	1854
11	65188	25.061827398394	1859
11	65316	25.111827398394	1864
11	65575	25.161827398394	1869
11	65703	25.211827398394	1874
11	65946	25.261827398394	1879
11	66074	25.311827398394	1884
11	66333	25.361827398394	1889
11	66461	25.411827398394	1894
11	66720	25.461827398394	1899
11	66848	25.511827398394	1904
11	67096	25.561827398394	1909
11	67224	25.611827398394	1914
11	67472	25.661827398394	1919
11	67600	25.711827398394	1924
11	67859	25.761827398394	1929
11	67987	25.811827398394	1934
11	68246	25.861827398394	1939
11	68374	25.911827398394	1944
11	68649	25.961827398394	1949
11	68777	26.011827398394	1954
11	69052	26.061827398394	1959
11	69180	26.111827398394	1964
11	69423	26.161827398394	1969
11	69551	26.211827398394	1974
11	69799	26.261827398394	1979
11	69927	26.311827398394	1984
11	70170	26.361827398394	1989
11	70298	26.411827398394	1994
11	70546	26.461827398394	1999
11	70674	26.511827398394	2004
11	70922	26.561827398394	2009
11	71050	26.611827398394	2014
11	71293	26.661827398394	2019
11	71421	26.711827398394	2024
11	71664	26.761827398394	2029
11	71792	26.811827398394	2034
11	72029	26.861827398394	2039
11	72157	26.911827398394	2044
11	72405	26.961827398394	2049
11	72533	27.011827398394	2054
11	72781	27.061827398394	2059
11	72909	27.111827398394	2064
11	73157	27.161827398394	2069
11	73285	27.211827398394	2074
11	73544	27.261827398394	2079
11	73672	27.311827398394	2084
11	73931	27.361827398394	2089
11	74059	27.411827398394	2094
11	74318	27.461827398394	2099
11	74446	27.511827398394	2104
11	74689	27.561827398394	2109
11	74817	27.611827398394	2114
11	75076	27.661827398394	2119
11	75204	27.711827398394	2124
11	75463	27.761827398394	2129
11	75591	27.811827398394	2134
11	75823	27.861827398394	2139
11	75951	27.911827398394	2144
11	76199	27.961827398394	2149
11	76327	28.011827398394	2154
11	76575	28.061827398394	2159
11	76703	28.111827398394	2164
11	76946	28.161827398394	2169
11	77074	28.211827398394	2174
11	77333	28.261827398394	2179
11	77461	28.311827398394	2184
11	77720	28.361827398394	2189
11	77848	28.411827398394	2194
11	78091	28.461827398394	2199
11	78219	28.511827398394	2204
11	78478	28.561827398394	2209
11	78606	28.611827398394	2214
11	78865	28.661827398394	2219
11	78993	28.711827398394	2224
11	79241	28.761827398394	2229
11	79369	28.811827398394	2234
11	79612	28.861827398394	2239
11	79740	28.911827398394	2244
11	79988	28.961827398394	2249
11	80116	29.011827398394	2254
11	80375	29.061827398394	2259
11	80503	29.111827398394	2264
11	80762	29.161827398394	2269
11	80890	29.211827398394	2274
11	81149	29.261827398394	2279
11	81277	29.311827398394	2284
11	81525	29.361827398394	2289
11	81653	29.411827398394	2294
11	81912	29.461827398394	2299
11	82040	29.511827398394	2304
11	82283	29.561827398394	2309
11	82411	29.611827398394	2314
11	82670	29.661827398394	2319
11	82798	29.711827398394	2324
11	83057	29.761827398394	2329
11	83185	29.811827398394	2334
11	83444	29.861827398394	2339
11	83572	29.911827398394	2344
11	83831	29.961827398394	2349
11	83959	30.011827398394	2354
11	84202	30.061827398394	2359
11	84330	30.111827398394	2364
11	84573	30.161827398394	2369
11	84701	30.211827398394	2374
11	84960	30.261827398394	2379
11	85088	30.311827398394	2384
11	85347	30.361827398394	2389
11	85475	30.411827398394	2394
11	85750	30.461827398394	2399
11	85878	30.511827398394	2404
11	86137	30.561827398394	2409
11	86265	30.611827398394	2414
11	86508	30.661827398394	2419
11	86636	30.711827398394	2424
11	86895	30.761827398394	2429
11	87023	30.811827398394	2434
11	87271	30.861827398394	2439
11	87399	30.911827398394	2444
11	87658	30.961827398394	2449
11	87786	31.011827398394	2454
11	88045	31.061827398394	2459
11	88173	31.111827398394	2464
11	88432	31.161827398394	2469
11	88560	31.211827398394	2474
11	88808	31.261827398394	2479
11	88936	31.311827398394	2484
11	89179	31.361827398394	2489
11	89307	31.411827398394	2494
11	89566	31.461827398394	2499
11	89694	31.511827398394	2504
11	89937	31.561827398394	2509
11	90065	31.611827398394	2514
11	90324	31.661827398394	2519
11	90452	31.711827398394	2524
11	90700	31.761827398394	2529
11	90828	31.811827398394	2534
11	91087	31.861827398394	2539
11	91215	31.911827398394	2544
11	91458	31.961827398394	2549
11	91586	32.011827398394	2554
11	91845	32.061827398394	2559
11	91973	32.111827398394	2564
11	92221	32.161827398394	2569
11	92349	32.211827398394	2574
11	92608	32.261827398394	2579
11	92736	32.311827398394	2584
11	92984	32.361827398394	2589
11	93112	32.411827398394	2594
11	93371	32.461827398394	2599
11	93499	32.511827398394	2604
11	93758	32.561827398394	2609
11	93886	32.611827398394	2614
11	94134	32.661827398394	2619
11	94262	32.711827398394	2624
11	94537	32.761827398394	2629
11	94665	32.811827398394	2634
11	94924	32.861827398394	2639
11	95052	32.911827398394	2644
11	95284	32.961827398394	2649
11	95412	33.011827398394	2654
11	95671	33.061827398394	2659
11	95799	33.111827398394	2664
11	96058	33.161827398394	2669
11	96186	33.211827398394	2674
11	96434	33.261827398394	2679
11	96562	33.311827398394	2684
11	96805	33.361827398394	2689
11	96933	33.411827398394	2694
11	97176	33.461827398394	2699
11	97304	33.511827398394	2704
11	97547	33.561827398394	2709
11	97675	33.611827398394	2714
11	97923	33.661827398394	2719
11	98051	33.711827398394	2724
11	98326	33.761827398394	2729
11	98454	33.811827398394	2734
11	98713	33.861827398394	2739
11	98841	33.911827398394	2744
11	99100	33.961827398394	2749
11	99228	34.011827398394	2754
11	99487	34.061827398394	2759
11	99615	34.111827398394	2764
11	99874	34.161827398394	2769
11	100002	34.211827398394	2774
11	100261	34.261827398394	2779
11	100389	34.311827398394	2784
11	100632	34.361827398394	2789
11	100760	34.411827398394	2794
11	101008	34.461827398394	2799
11	101136	34.511827398394	2804
11	101384	34.561827398394	2809
11	101512	34.611827398394	2814
11	101771	34.661827398394	2819
11	101899	34.711827398394	2824
11	102158	34.761827398394	2829
11	102286	34.811827398394	2834
11	102545	34.861827398394	2839
11	102673	34.911827398394	2844
11	102932	34.961827398394	2849
11	103060	35.011827398394	2854
11	103335	35.061827398394	2859
11	103463	35.111827398394	2864
11	103711	35.161827398394	2869
11	103839	35.211827398394	2874
11	104087	35.261827398394	2879
11	104215	35.311827398394	2884
11	104474	35.361827398394	2889
11	104602	35.411827398394	2894
11	104850	35.461827398394	2899
11	104978	35.511827398394	2904
11	105221	35.561827398394	2909
11	105349	35.611827398394	2914
11	105608	35.661827398394	2919
11	105736	35.711827398394	2924
11	105984	35.761827398394	2929
11	106112	35.811827398394	2934
11	106355	35.861827398394	2939
11	106483	35.911827398394	2944
11	106742	35.961827398394	2949
11	106870	36.011827398394	2954
11	107113	36.061827398394	2959
11	107241	36.111827398394	2964
11	107500	36.161827398394	2969
11	107628	36.211827398394	2974
11	107887	36.261827398394	2979
11	108015	36.311827398394	2984
11	108274	36.361827398394	2989
11	108402	36.411827398394	2994
11	108645	36.461827398394	2999
11	108773	36.511827398394	3004
11	109048	36.561827398394	3009
11	109176	36.611827398394	3014
11	109435	36.661827398394	3019
11	109563	36.711827398394	3024
11	109806	36.761827398394	3029
11	109934	36.811827398394	3034
11	110182	36.861827398394	3039
11	110310	36.911827398394	3044
11	110569	36.961827398394	3049
11	110697	37.011827398394	3054
11	110956	37.061827398394	3059
11	111084	37.111827398394	3064
11	111327	37.161827398394	3069
11	111455	37.211827398394	3074
11	111714	37.261827398394	3079
11	111842	37.311827398394	3084
11	112101	37.361827398394	3089
11	112229	37.411827398394	3094
11	112488	37.461827398394	3099
11	112616	37.511827398394	3104
11	112859	37.561827398394	3109
11	112987	37.611827398394	3114
11	113230	37.661827398394	3119
11	113358	37.711827398394	3124
11	113601	37.761827398394	3129
11	113729	37.811827398394	3134
11	113977	37.861827398394	3139
11	114105	37.911827398394	3144
11	114364	37.961827398394	3149
11	114492	38.011827398394	3154
11	114724	38.061827398394	3159
11	114852	38.111827398394	3164
11	115100	38.161827398394	3169
11	115228	38.211827398394	3174
11	115487	38.261827398394	3179
11	115615	38.311827398394	3184
11	115863	38.361827398394	3189
11	115991	38.411827398394	3194
11	116239	38.461827398394	3199
11	116367	38.511827398394	3204
11	116615	38.561827398394	3209
11	116743	38.611827398394	3214
11	117002	38.661827398394	3219
11	117130	38.711827398394	3224
11	117389	38.761827398394	3229
11	117517	38.811827398394	3234
11	117776	38.861827398394	3239
11	117904	38.911827398394	3244
11	118152	38.961827398394	3249
11	118280	39.011827398394	3254
11	118523	39.061827398394	3259
11	118651	39.111827398394	3264
11	118910	39.161827398394	3269
11	119038	39.211827398394	3274
11	119286	39.261827398394	3279
11	119414	39.311827398394	3284
11	119673	39.361827398394	3289
11	119801	39.411827398394	3294
11	120049	39.461827398394	3299
11	120177	39.511827398394	3304
11	120425	39.561827398394	3309
11	120553	39.611827398394	3314
11	120796	39.661827398394	3319
11	120924	39.711827398394	3324
11	121167	39.761827398394	3329
11	121295	39.811827398394	3334
11	121538	39.861827398394	3339
11	121666	39.911827398394	3344
11	121925	39.961827398394	3349
11	122053	40.011827398394	3354
11	122312	40.061827398394	3359
11	122440	40.111827398394	3364
11	122683	40.161827398394	3369
11	122811	40.211827398394	3374
11	123070	40.261827398394	3379
11	123198	40.311827398394	3384
11	123441	40.361827398394	3389
11	123569	40.411827398394	3394
11	123817	40.461827398394	3399
11	123945	40.511827398394	3404
11	124204	40.561827398394	3409
11	124332	40.611827398394	3414
11	124575	40.661827398394	3419
11	124703	40.711827398394	3424
11	124951	40.761827398394	3429
11	125079	40.811827398394	3434
11	125338	40.861827398394	3439
11	125466	40.911827398394	3444
11	125725	40.961827398394	3449
11	125853	41.011827398394	3454
11	126112	41.061827398394	3459
11	126240	41.111827398394	3464
11	126483	41.161827398394	3469
11	126611	41.211827398394	3474
11	126870	41.261827398394	3479
11	126998	41.311827398394	3484
11	127257	41.361827398394	3489
11	127385	41.411827398394	3494
11	127628	41.461827398394	3499
11	127756	41.511827398394	3504
11	127999	41.561827398394	3509
11	128127	41.611827398394	3514
11	128370	41.661827398394	3519
11	128498	41.711827398394	3524
11	128746	41.761827398394	3529
11	128874	41.811827398394	3534
11	129133	41.861827398394	3539
11	129261	41.911827398394	3544
11	129520	41.961827398394	3549
11	129648	42.011827398394	3554
11	129907	42.061827398394	3559
11	130035	42.111827398394	3564
11	130278	42.161827398394	3569
11	130406	42.211827398394	3574
11	130665	42.261827398394	3579
11	130793	42.311827398394	3584
11	131052	42.361827398394	3589
11	131180	42.411827398394	3594
11	131423	42.461827398394	3599
11	131551	42.511827398394	3604
11	131794	42.561827398394	3609
11	131922	42.611827398394	3614
11	132170	42.661827398394	3619
11	132298	42.711827398394	3624
11	132557	42.761827398394	3629
11	132685	42.811827398394	3634
11	132933	42.861827398394	3639
11	133061	42.911827398394	3644
11	133320	42.961827398394	3649
11	133448	43.011827398394	3654
11	133723	43.061827398394	3659
11	133851	43.111827398394	3664
11	134110	43.161827398394	3669
11	134238	43.211827398394	3674
11	134470	43.261827398394	3679
11	134598	43.311827398394	3684
11	134846	43.361827398394	3689
11	134974	43.411827398394	3694
11	135222	43.461827398394	3699
11	135350	43.511827398394	3704
11	135593	43.561827398394	3709
11	135721	43.611827398394	3714
11	135969	43.661827398394	3719
11	136097	43.711827398394	3724
11	136356	43.761827398394	3729
11	136484	43.811827398394	3734
11	136727	43.861827398394	3739
11	136855	43.911827398394	3744
11	137114	43.961827398394	3749
11	137242	44.011827398394	3754
11	137501	44.061827398394	3759
11	137629	44.111827398394	3764
11	137877	44.161827398394	3769
11	138005	44.211827398394	3774
11	138253	44.261827398394	3779
11	138381	44.311827398394	3784
11	138624	44.361827398394	3789
11	138752	44.411827398394	3794
11	138995	44.461827398394	3799
11	139123	44.511827398394	3804
11	139382	44.561827398394	3809
11	139510	44.611827398394	3814
11	139742	44.661827398394	3819
11	139870	44.711827398394	3824
11	140113	44.761827398394	3829
11	140241	44.811827398394	3834
11	140500	44.861827398394	3839
11	140628	44.911827398394	3844
11	140887	44.961827398394	3849
11	141015	45.011827398394	3854
11	141274	45.061827398394	3859
11	141402	45.111827398394	3864
11	141650	45.161827398394	3869
11	141778	45.211827398394	3874
11	142053	45.261827398394	3879
11	142181	45.311827398394	3884
11	142429	45.361827398394	3889
11	142557	45.411827398394	3894
11	142800	45.461827398394	3899
11	142928	45.511827398394	3904
11	143176	45.561827398394	3909
11	143304	45.611827398394	3914
11	143563	45.661827398394	3919
11	143691	45.711827398394	3924
11	143950	45.761827398394	3929
11	144078	45.811827398394	3934
11	144337	45.861827398394	3939
11	144465	45.911827398394	3944
11	144724	45.961827398394	3949
11	144852	46.011827398394	3954
11	145100	46.061827398394	3959
11	145228	46.111827398394	3964
11	145465	46.161827398394	3969
11	145593	46.211827398394	3974
11	145868	46.261827398394	3979
11	145996	46.311827398394	3984
11	146244	46.361827398394	3989
11	146372	46.411827398394	3994
11	146620	46.461827398394	3999
11	146748	46.511827398394	4004
11	147007	46.561827398394	4009
11	147135	46.611827398394	4014
11	147394	46.661827398394	4019
11	147522	46.711827398394	4024
11	147781	46.761827398394	4029
11	147909	46.811827398394	4034
11	148168	46.861827398394	4039
11	148296	46.911827398394	4044
11	148544	46.961827398394	4049
11	148672	47.011827398394	4054
11	148931	47.061827398394	4059
11	149059	47.111827398394	4064
11	149318	47.161827398394	4069
11	149446	47.211827398394	4074
11	149694	47.261827398394	4079
11	149822	47.311827398394	4084
11	150065	47.361827398394	4089
11	150193	47.411827398394	4094
11	150436	47.461827398394	4099
11	150564	47.511827398394	4104
11	150823	47.561827398394	4109
11	150951	47.611827398394	4114
11	151194	47.661827398394	4119
11	151322	47.711827398394	4124
11	151565	47.761827398394	4129
11	151693	47.811827398394	4134
11	151941	47.861827398394	4139
11	152069	47.911827398394	4144
11	152328	47.961827398394	4149
11	152456	48.011827398394	4154
11	152715	48.061827398394	4159
11	152843	48.111827398394	4164
11	153086	48.161827398394	4169
11	153214	48.211827398394	4174
11	153462	48.261827398394	4179
11	153590	48.311827398394	4184
11	153849	48.361827398394	4189
11	153977	48.411827398394	4194
11	154236	48.461827398394	4199
11	154364	48.511827398394	4204
11	154623	48.561827398394	4209
11	154751	48.611827398394	4214
11	155010	48.661827398394	4219
11	155138	48.711827398394	4224
11	155397	48.761827398394	4229
11	155525	48.811827398394	4234
11	155784	48.861827398394	4239
11	155912	48.911827398394	4244
11	156160	48.961827398394	4249
11	156288	49.011827398394	4254
11	156536	49.061827398394	4259
11	156664	49.111827398394	4264
11	156923	49.161827398394	4269
11	157051	49.211827398394	4274
11	157310	49.261827398394	4279
11	157438	49.311827398394	4284
11	157697	49.361827398394	4289
11	157825	49.411827398394	4294
11	158084	49.461827398394	4299
11	158212	49.511827398394	4304
11	158471	49.561827398394	4309
11	158599	49.611827398394	4314
11	158858	49.661827398394	4319
11	158986	49.711827398394	4324
11	159229	49.761827398394	4329
11	159357	49.811827398394	4334
11	159616	49.861827398394	4339
11	159744	49.911827398394	4344
11	159987	49.961827398394	4349
11	160115	50.011827398394	4354
11	160374	50.061827398394	4359
11	160502	50.111827398394	4364
11	160761	50.161827398394	4369
11	160889	50.211827398394	4374
11	161132	50.261827398394	4379
11	161260	50.311827398394	4384
11	161503	50.361827398394	4389
11	161631	50.411827398394	4394
11	161874	50.461827398394	4399
11	162002	50.511827398394	4404
11	162245	50.561827398394	4409
11	162373	50.611827398394	4414
11	162621	50.661827398394	4419
11	162749	50.711827398394	4424
11	162997	50.761827398394	4429
11	163125	50.811827398394	4434
11	163373	50.861827398394	4439
11	163501	50.911827398394	4444
11	163749	50.961827398394	4449
11	163877	51.011827398394	4454
11	164120	51.061827398394	4459
11	164248	51.111827398394	4464
11	164523	51.161827398394	4469
11	164651	51.211827398394	4474
11	164899	51.261827398394	4479
11	165027	51.311827398394	4484
11	165286	51.361827398394	4489
11	165414	51.411827398394	4494
11	165657	51.461827398394	4499
11	165785	51.511827398394	4504
11	166044	51.561827398394	4509
11	166172	51.611827398394	4514
11	166420	51.661827398394	4519
11	166548	51.711827398394	4524
11	166807	51.761827398394	4529
11	166935	51.811827398394	4534
11	167183	51.861827398394	4539
11	167311	51.911827398394	4544
11	167570	51.961827398394	4549
11	167698	52.011827398394	4554
11	167957	52.061827398394	4559
11	168085	52.111827398394	4564
11	168344	52.161827398394	4569
11	168472	52.211827398394	4574
11	168731	52.261827398394	4579
11	168859	52.311827398394	4584
11	169118	52.361827398394	4589
11	169246	52.411827398394	4594
11	169505	52.461827398394	4599
11	169633	52.511827398394	4604
11	169892	52.561827398394	4609
11	170020	52.611827398394	4614
11	170279	52.661827398394	4619
11	170407	52.711827398394	4624
11	170655	52.761827398394	4629
11	170783	52.811827398394	4634
11	171031	52.861827398394	4639
11	171159	52.911827398394	4644
11	171391	52.961827398394	4649
11	171519	53.011827398394	4654
11	171762	53.061827398394	4659
11	171890	53.111827398394	4664
11	172133	53.161827398394	4669
11	172261	53.211827398394	4674
11	172509	53.261827398394	4679
11	172637	53.311827398394	4684
11	172880	53.361827398394	4689
11	173008	53.411827398394	4694
11	173267	53.461827398394	4699
11	173395	53.511827398394	4704
11	173643	53.561827398394	4709
11	173771	53.611827398394	4714
11	174030	53.661827398394	4719
11	174158	53.711827398394	4724
11	174417	53.761827398394	4729
11	174545	53.811827398394	4734
11	174804	53.861827398394	4739
11	174932	53.911827398394	4744
11	175191	53.961827398394	4749
11	175319	54.011827398394	4754
11	175578	54.061827398394	4759
11	175706	54.111827398394	4764
11	175949	54.161827398394	4769
11	176077	54.211827398394	4774
11	176336	54.261827398394	4779
11	176464	54.311827398394	4784
11	176723	54.361827398394	4789
11	176851	54.411827398394	4794
11	177099	54.461827398394	4799
11	177227	54.511827398394	4804
11	177486	54.561827398394	4809
11	177614	54.611827398394	4814
11	177873	54.661827398394	4819
11	178001	54.711827398394	4824
11	178260	54.761827398394	4829
11	178388	54.811827398394	4834
11	178636	54.861827398394	4839
11	178764	54.911827398394	4844
11	179023	54.961827398394	4849
11	179151	55.011827398394	4854
11	179426	55.061827398394	4859
11	179554	55.111827398394	4864
11	179813	55.161827398394	4869
11	179941	55.211827398394	4874
11	180184	55.261827398394	4879
11	180312	55.311827398394	4884
11	180555	55.361827398394	4889
11	180683	55.411827398394	4894
11	180942	55.461827398394	4899
11	181070	55.511827398394	4904
11	181329	55.561827398394	4909
11	181457	55.611827398394	4914
11	181716	55.661827398394	4919
11	181844	55.711827398394	4924
11	182092	55.761827398394	4929
11	182220	55.811827398394	4934
11	182468	55.861827398394	4939
11	182596	55.911827398394	4944
11	182855	55.961827398394	4949
11	182983	56.011827398394	4954
11	183226	56.061827398394	4959
11	183354	56.111827398394	4964
11	183597	56.161827398394	4969
11	183725	56.211827398394	4974
11	183973	56.261827398394	4979
11	184101	56.311827398394	4984
11	184344	56.361827398394	4989
11	184472	56.411827398394	4994
11	184747	56.461827398394	4999
11	184875	56.511827398394	5004
11	185134	56.561827398394	5009
11	185262	56.611827398394	5014
11	185499	56.661827398394	5019
11	185627	56.711827398394	5024
11	185886	56.761827398394	5029
11	186014	56.811827398394	5034
11	186246	56.861827398394	5039
11	186374	56.911827398394	5044
11	186617	56.961827398394	5049
11	186745	57.011827398394	5054
11	187004	57.061827398394	5059
11	187132	57.111827398394	5064
11	187380	57.161827398394	5069
11	187508	57.211827398394	5074
11	187756	57.261827398394	5079
11	187884	57.311827398394	5084
11	188143	57.361827398394	5089
11	188271	57.411827398394	5094
11	188530	57.461827398394	5099
11	188658	57.511827398394	5104
11	188917	57.561827398394	5109
11	189045	57.611827398394	5114
11	189304	57.661827398394	5119
11	189432	57.711827398394	5124
11	189680	57.761827398394	5129
11	189808	57.811827398394	5134
11	190045	57.861827398394	5139
11	190173	57.911827398394	5144
11	190421	57.961827398394	5149
11	190549	58.011827398394	5154
11	190824	58.061827398394	5159
11	190952	58.111827398394	5164
11	191211	58.161827398394	5169
11	191339	58.211827398394	5174
11	191598	58.261827398394	5179
11	191726	58.311827398394	5184
11	191985	58.361827398394	5189
11	192113	58.411827398394	5194
11	192356	58.461827398394	5199
11	192484	58.511827398394	5204
11	192716	58.561827398394	5209
11	192844	58.611827398394	5214
11	193087	58.661827398394	5219
11	193215	58.711827398394	5224
11	193463	58.761827398394	5229
11	193591	58.811827398394	5234
11	193850	58.861827398394	5239
11	193978	58.911827398394	5244
11	194237	58.961827398394	5249
11	194365	59.011827398394	5254
11	194624	59.061827398394	5259
11	194752	59.111827398394	5264
11	195011	59.161827398394	5269
11	195139	59.211827398394	5274
11	195414	59.261827398394	5279
11	195542	59.311827398394	5284
11	195801	59.361827398394	5289
11	195929	59.411827398394	5294
11	196166	59.461827398394	5299
11	196294	59.511827398394	5304
11	196542	59.561827398394	5309
11	196670	59.611827398394	5314
11	196918	59.661827398394	5319
11	197046	59.711827398394	5324
11	197289	59.761827398394	5329
11	197417	59.811827398394	5334
11	197665	59.861827398394	5339
11	197793	59.911827398394	5344
11	198041	59.961827398394	5349
11	198169	60.011827398394	5354
11	198428	60.061827398394	5359
11	198556	60.111827398394	5364
11	198815	60.161827398394	5369
11	198943	60.211827398394	5374
11	199186	60.261827398394	5379
11	199314	60.311827398394	5384
11	199573	60.361827398394	5389
11	199701	60.411827398394	5394
11	199944	60.461827398394	5399
11	200072	60.511827398394	5404
11	200309	60.561827398394	5409
11	200437	60.611827398394	5414
11	200680	60.661827398394	5419
11	200808	60.711827398394	5424
11	201051	60.761827398394	5429
11	201179	60.811827398394	5434
11	201438	60.861827398394	5439
11	201566	60.911827398394	5444
11	201825	60.961827398394	5449
11	201953	61.011827398394	5454
11	202212	61.061827398394	5459
11	202340	61.111827398394	5464
11	202588	61.161827398394	5469
11	202716	61.211827398394	5474
11	202964	61.261827398394	5479
11	203092	61.311827398394	5484
11	203335	61.361827398394	5489
11	203463	61.411827398394	5494
11	203706	61.461827398394	5499
11	203834	61.511827398394	5504
[...]
9	127767	41.550253279723	1
9	128122	41.600253279723	1.001
9	128138	41.650253279723	1
9	128493	41.700253279723	1.001
9	128509	41.750253279723	1
9	128869	41.800253279723	1.001
9	128885	41.850253279723	1
9	129256	41.900253279723	1.001
9	129272	41.950253279723	1
9	129643	42.000253279723	1.001
9	129659	42.050253279723	1
9	130030	42.100253279723	1.001
9	130046	42.150253279723	1
9	130401	42.200253279723	1.001
9	130417	42.250253279723	1
9	130788	42.300253279723	1.001
9	130804	42.350253279723	1
9	131175	42.400253279723	1.001
9	131191	42.450253279723	1
9	131546	42.500253279723	1.001
9	131562	42.550253279723	1
9	131917	42.600253279723	1.001
9	131933	42.650253279723	1
9	132293	42.700253279723	1.001
9	132309	42.750253279723	1
9	132680	42.800253279723	1.001
9	132696	42.850253279723	1
9	133056	42.900253279723	1.001
9	133072	42.950253279723	1
9	133443	43.000253279723	1.001
9	133459	43.050253279723	1
9	133846	43.100253279723	1.001
9	133862	43.150253279723	1
9	134233	43.200253279723	1.001
9	134249	43.250253279723	1
9	134593	43.300253279723	1.001
9	134609	43.350253279723	1
9	134969	43.400253279723	1.001
9	134985	43.450253279723	1
9	135345	43.500253279723	1.001
9	135361	43.550253279723	1
9	135716	43.600253279723	1.001
9	135732	43.650253279723	1
9	136092	43.700253279723	1.001
9	136108	43.750253279723	1
9	136479	43.800253279723	1.001
9	136495	43.850253279723	1
9	136850	43.900253279723	1.001
9	136866	43.950253279723	1
9	137237	44.000253279723	1.001
9	137253	44.050253279723	1
9	137624	44.100253279723	1.001
9	137640	44.150253279723	1
9	138000	44.200253279723	1.001
9	138016	44.250253279723	1
9	138376	44.300253279723	1.001
9	138392	44.350253279723	1
9	138747	44.400253279723	1.001
9	138763	44.450253279723	1
9	139118	44.500253279723	1.001
9	139134	44.550253279723	1
9	139505	44.600253279723	1.001
9	139521	44.650253279723	1
9	139865	44.700253279723	1.001
9	139881	44.750253279723	1
9	140236	44.800253279723	1.001
9	140252	44.850253279723	1
9	140623	44.900253279723	1.001
9	140639	44.950253279723	1
9	141010	45.000253279723	1.001
9	141026	45.050253279723	1
9	141397	45.100253279723	1.001
9	141413	45.150253279723	1
9	141773	45.200253279723	1.001
9	141789	45.250253279723	1
9	142176	45.300253279723	1.001
9	142192	45.350253279723	1
9	142552	45.400253279723	1.001
9	142568	45.450253279723	1
9	142923	45.500253279723	1.001
9	142939	45.550253279723	1
9	143299	45.600253279723	1.001
9	143315	45.650253279723	1
9	143686	45.700253279723	1.001
9	143702	45.750253279723	1
9	144073	45.800253279723	1.001
9	144089	45.850253279723	1
9	144460	45.900253279723	1.001
9	144476	45.950253279723	1
9	144847	46.000253279723	1.001
9	144863	46.050253279723	1
9	145223	46.100253279723	1.001
9	145239	46.150253279723	1
9	145588	46.200253279723	1.001
9	145604	46.250253279723	1
9	145991	46.300253279723	1.001
9	146007	46.350253279723	1
9	146367	46.400253279723	1.001
9	146383	46.450253279723	1
9	146743	46.500253279723	1.001
9	146759	46.550253279723	1
9	147130	46.600253279723	1.001
9	147146	46.650253279723	1
9	147517	46.700253279723	1.001
9	147533	46.750253279723	1
9	147904	46.800253279723	1.001
9	147920	46.850253279723	1
9	148291	46.900253279723	1.001
9	148307	46.950253279723	1
9	148667	47.000253279723	1.001
9	148683	47.050253279723	1
9	149054	47.100253279723	1.001
9	149070	47.150253279723	1
9	149441	47.200253279723	1.001
9	149457	47.250253279723	1
9	149817	47.300253279723	1.001
9	149833	47.350253279723	1
9	150188	47.400253279723	1.001
9	150204	47.450253279723	1
9	150559	47.500253279723	1.001
9	150575	47.550253279723	1
9	150946	47.600253279723	1.001
9	150962	47.650253279723	1
9	151317	47.700253279723	1.001
9	151333	47.750253279723	1
9	151688	47.800253279723	1.001
9	151704	47.850253279723	1
9	152064	47.900253279723	1.001
9	152080	47.950253279723	1
9	152451	48.000253279723	1.001
9	152467	48.050253279723	1
9	152838	48.100253279723	1.001
9	152854	48.150253279723	1
9	153209	48.200253279723	1.001
9	153225	48.250253279723	1
9	153585	48.300253279723	1.001
9	153601	48.350253279723	1
9	153972	48.400253279723	1.001
9	153988	48.450253279723	1
9	154359	48.500253279723	1.001
9	154375	48.550253279723	1
9	154746	48.600253279723	1.001
9	154762	48.650253279723	1
9	155133	48.700253279723	1.001
9	155149	48.750253279723	1
9	155520	48.800253279723	1.001
9	155536	48.850253279723	1
9	155907	48.900253279723	1.001
9	155923	48.950253279723	1
9	156283	49.000253279723	1.001
9	156299	49.050253279723	1
9	156659	49.100253279723	1.001
9	156675	49.150253279723	1
9	157046	49.200253279723	1.001
9	157062	49.250253279723	1
9	157433	49.300253279723	1.001
9	157449	49.350253279723	1
9	157820	49.400253279723	1.001
9	157836	49.450253279723	1
9	158207	49.500253279723	1.001
9	158223	49.550253279723	1
9	158594	49.600253279723	1.001
9	158610	49.650253279723	1
9	158981	49.700253279723	1.001
9	158997	49.750253279723	1
9	159352	49.800253279723	1.001
9	159368	49.850253279723	1
9	159739	49.900253279723	1.001
9	159755	49.950253279723	1
9	160110	50.000253279723	1.001
9	160126	50.050253279723	1
9	160497	50.100253279723	1.001
9	160513	50.150253279723	1
9	160884	50.200253279723	1.001
9	160900	50.250253279723	1
9	161255	50.300253279723	1.001
9	161271	50.350253279723	1
9	161626	50.400253279723	1.001
9	161642	50.450253279723	1
9	161997	50.500253279723	1.001
9	162013	50.550253279723	1
9	162368	50.600253279723	1.001
9	162384	50.650253279723	1
9	162744	50.700253279723	1.001
9	162760	50.750253279723	1
9	163120	50.800253279723	1.001
9	163136	50.850253279723	1
9	163496	50.900253279723	1.001
9	163512	50.950253279723	1
9	163872	51.000253279723	1.001
9	163888	51.050253279723	1
9	164243	51.100253279723	1.001
9	164259	51.150253279723	1
9	164646	51.200253279723	1.001
9	164662	51.250253279723	1
9	165022	51.300253279723	1.001
9	165038	51.350253279723	1
9	165409	51.400253279723	1.001
9	165425	51.450253279723	1
9	165780	51.500253279723	1.001
9	165796	51.550253279723	1
9	166167	51.600253279723	1.001
9	166183	51.650253279723	1
9	166543	51.700253279723	1.001
9	166559	51.750253279723	1
9	166930	51.800253279723	1.001
9	166946	51.850253279723	1
9	167306	51.900253279723	1.001
9	167322	51.950253279723	1
9	167693	52.000253279723	1.001
9	167709	52.050253279723	1
9	168080	52.100253279723	1.001
9	168096	52.150253279723	1
9	168467	52.200253279723	1.001
9	168483	52.250253279723	1
9	168854	52.300253279723	1.001
9	168870	52.350253279723	1
9	169241	52.400253279723	1.001
9	169257	52.450253279723	1
9	169628	52.500253279723	1.001
9	169644	52.550253279723	1
9	170015	52.600253279723	1.001
9	170031	52.650253279723	1
9	170402	52.700253279723	1.001
9	170418	52.750253279723	1
9	170778	52.800253279723	1.001
9	170794	52.850253279723	1
9	171154	52.900253279723	1.001
9	171170	52.950253279723	1
9	171514	53.000253279723	1.001
9	171530	53.050253279723	1
9	171885	53.100253279723	1.001
9	171901	53.150253279723	1
9	172256	53.200253279723	1.001
9	172272	53.250253279723	1
9	172632	53.300253279723	1.001
9	172648	53.350253279723	1
9	173003	53.400253279723	1.001
9	173019	53.450253279723	1
9	173390	53.500253279723	1.001
9	173406	53.550253279723	1
9	173766	53.600253279723	1.001
9	173782	53.650253279723	1
9	174153	53.700253279723	1.001
9	174169	53.750253279723	1
9	174540	53.800253279723	1.001
9	174556	53.850253279723	1
9	174927	53.900253279723	1.001
9	174943	53.950253279723	1
9	175314	54.000253279723	1.001
9	175330	54.050253279723	1
9	175701	54.100253279723	1.001
9	175717	54.150253279723	1
9	176072	54.200253279723	1.001
9	176088	54.250253279723	1
9	176459	54.300253279723	1.001
9	176475	54.350253279723	1
9	176846	54.400253279723	1.001
9	176862	54.450253279723	1
9	177222	54.500253279723	1.001
9	177238	54.550253279723	1
9	177609	54.600253279723	1.001
9	177625	54.650253279723	1
9	177996	54.700253279723	1.001
9	178012	54.750253279723	1
9	178383	54.800253279723	1.001
9	178399	54.850253279723	1
9	178759	54.900253279723	1.001
9	178775	54.950253279723	1
9	179146	55.000253279723	1.001
9	179162	55.050253279723	1
9	179549	55.100253279723	1.001
9	179565	55.150253279723	1
9	179936	55.200253279723	1.001
9	179952	55.250253279723	1
9	180307	55.300253279723	1.001
9	180323	55.350253279723	1
9	180678	55.400253279723	1.001
9	180694	55.450253279723	1
9	181065	55.500253279723	1.001
9	181081	55.550253279723	1
9	181452	55.600253279723	1.001
9	181468	55.650253279723	1
9	181839	55.700253279723	1.001
9	181855	55.750253279723	1
9	182215	55.800253279723	1.001
9	182231	55.850253279723	1
9	182591	55.900253279723	1.001
9	182607	55.950253279723	1
9	182978	56.000253279723	1.001
9	182994	56.050253279723	1
9	183349	56.100253279723	1.001
9	183365	56.150253279723	1
9	183720	56.200253279723	1.001
9	183736	56.250253279723	1
9	184096	56.300253279723	1.001
9	184112	56.350253279723	1
9	184467	56.400253279723	1.001
9	184483	56.450253279723	1
9	184870	56.500253279723	1.001
9	184886	56.550253279723	1
9	185257	56.600253279723	1.001
9	185273	56.650253279723	1
9	185622	56.700253279723	1.001
9	185638	56.750253279723	1
9	186009	56.800253279723	1.001
9	186025	56.850253279723	1
9	186369	56.900253279723	1.001
9	186385	56.950253279723	1
9	186740	57.000253279723	1.001
9	186756	57.050253279723	1
9	187127	57.100253279723	1.001
9	187143	57.150253279723	1
9	187503	57.200253279723	1.001
9	187519	57.250253279723	1
9	187879	57.300253279723	1.001
9	187895	57.350253279723	1
9	188266	57.400253279723	1.001
9	188282	57.450253279723	1
9	188653	57.500253279723	1.001
9	188669	57.550253279723	1
9	189040	57.600253279723	1.001
9	189056	57.650253279723	1
9	189427	57.700253279723	1.001
9	189443	57.750253279723	1
9	189803	57.800253279723	1.001
9	189819	57.850253279723	1
9	190168	57.900253279723	1.001
9	190184	57.950253279723	1
9	190544	58.000253279723	1.001
9	190560	58.050253279723	1
9	190947	58.100253279723	1.001
9	190963	58.150253279723	1
9	191334	58.200253279723	1.001
9	191350	58.250253279723	1
9	191721	58.300253279723	1.001
9	191737	58.350253279723	1
9	192108	58.400253279723	1.001
9	192124	58.450253279723	1
9	192479	58.500253279723	1.001
9	192495	58.550253279723	1
9	192839	58.600253279723	1.001
9	192855	58.650253279723	1
9	193210	58.700253279723	1.001
9	193226	58.750253279723	1
9	193586	58.800253279723	1.001
9	193602	58.850253279723	1
9	193973	58.900253279723	1.001
9	193989	58.950253279723	1
9	194360	59.000253279723	1.001
9	194376	59.050253279723	1
9	194747	59.100253279723	1.001
9	194763	59.150253279723	1
9	195134	59.200253279723	1.001
9	195150	59.250253279723	1
9	195537	59.300253279723	1.001
9	195553	59.350253279723	1
9	195924	59.400253279723	1.001
9	195940	59.450253279723	1
9	196289	59.500253279723	1.001
9	196305	59.550253279723	1
9	196665	59.600253279723	1.001
9	196681	59.650253279723	1
9	197041	59.700253279723	1.001
9	197057	59.750253279723	1
9	197412	59.800253279723	1.001
9	197428	59.850253279723	1
9	197788	59.900253279723	1.001
9	197804	59.950253279723	1
9	198164	60.000253279723	1.001
9	198180	60.050253279723	1
9	198551	60.100253279723	1.001
9	198567	60.150253279723	1
9	198938	60.200253279723	1.001
9	198954	60.250253279723	1
9	199309	60.300253279723	1.001
9	199325	60.350253279723	1
9	199696	60.400253279723	1.001
9	199712	60.450253279723	1
9	200067	60.500253279723	1.001
9	200083	60.550253279723	1
9	200432	60.600253279723	1.001
9	200448	60.650253279723	1
9	200803	60.700253279723	1.001
9	200819	60.750253279723	1
9	201174	60.800253279723	1.001
9	201190	60.850253279723	1
9	201561	60.900253279723	1.001
9	201577	60.950253279723	1
9	201948	61.000253279723	1.001
9	201964	61.050253279723	1
9	202335	61.100253279723	1.001
9	202351	61.150253279723	1
9	202711	61.200253279723	1.001
9	202727	61.250253279723	1
9	203087	61.300253279723	1.001
9	203103	61.350253279723	1
9	203458	61.400253279723	1.001
9	203474	61.450253279723	1
9	203829	61.500253279723	1.001
9	203845	61.550253279723	1
9	204205	61.600253279723	1.001
9	204221	61.650253279723	1
9	204575	61.700253279723	1.001
9	204588	61.750253279723	1
9	204837	61.800253279723	1.001
9	204850	61.850253279723	1
9	205099	61.900253279723	1.001
9	205112	61.950253279723	1
9	205361	62.000253279723	1.001
9	205374	62.050253279723	1
9	205623	62.100253279723	1.001
9	205636	62.150253279723	1
9	205898	62.200253279723	1.001
9	205911	62.250253279723	1
9	206173	62.300253279723	1.001
9	206186	62.350253279723	1
9	206448	62.400253279723	1.001
9	206461	62.450253279723	1
9	206710	62.500253279723	1.001
9	206723	62.550253279723	1
9	206972	62.600253279723	1.001
9	206985	62.650253279723	1
9	207247	62.700253279723	1.001
9	207260	62.750253279723	1
9	207509	62.800253279723	1.001
9	207522	62.850253279723	1
9	207758	62.900253279723	1.001
9	207771	62.950253279723	1
9	208020	63.000253279723	1.001
9	208033	63.050253279723	1
9	208295	63.100253279723	1.001
9	208308	63.150253279723	1
9	208570	63.200253279723	1.001
9	208583	63.250253279723	1
9	208832	63.300253279723	1.001
9	208845	63.350253279723	1
9	209094	63.400253279723	1.001
9	209107	63.450253279723	1
9	209356	63.500253279723	1.001
9	209369	63.550253279723	1
9	209618	63.600253279723	1.001
9	209631	63.650253279723	1
9	209880	63.700253279723	1.001
9	209893	63.750253279723	1
9	210142	63.800253279723	1.001
9	210155	63.850253279723	1
9	210417	63.900253279723	1.001
9	210430	63.950253279723	1
9	210692	64.000253279723	1.001
9	210705	64.050253279723	1
9	210954	64.100253279723	1.001
9	210967	64.150253279723	1
9	211216	64.200253279723	1.001
9	211229	64.250253279723	1
9	211478	64.300253279723	1.001
9	211491	64.350253279723	1
9	211740	64.400253279723	1.001
9	211753	64.450253279723	1
9	212015	64.500253279723	1.001
9	212028	64.550253279723	1
9	212276	64.600253279723	1.001
9	212286	64.650253279723	1
9	212447	64.700253279723	1.001
9	212457	64.750253279723	1
9	212618	64.800253279723	1.001
9	212628	64.850253279723	1
9	212789	64.900253279723	1.001
9	212799	64.950253279723	1
9	212950	65.000253279723	1.001
9	212960	65.050253279723	1
9	213121	65.100253279723	1.001
9	213131	65.150253279723	1
9	213292	65.200253279723	1.001
9	213302	65.250253279723	1
9	213453	65.300253279723	1.001
9	213463	65.350253279723	1
9	213614	65.400253279723	1.001
9	213624	65.450253279723	1
9	213775	65.500253279723	1.001
9	213785	65.550253279723	1
9	213936	65.600253279723	1.001
9	213946	65.650253279723	1
9	214097	65.700253279723	1.001
9	214107	65.750253279723	1
9	214258	65.800253279723	1.001
9	214268	65.850253279723	1
9	214419	65.900253279723	1.001
9	214429	65.950253279723	1
9	214590	66.000253279723	1.001
9	214600	66.050253279723	1
9	214761	66.100253279723	1.001
9	214771	66.150253279723	1
9	214922	66.200253279723	1.001
9	214932	66.250253279723	1
9	215093	66.300253279723	1.001
9	215103	66.350253279723	1
9	215264	66.400253279723	1.001
9	215274	66.450253279723	1
9	215425	66.500253279723	1.001
9	215435	66.550253279723	1
9	215596	66.600253279723	1.001
9	215606	66.650253279723	1
9	215757	66.700253279723	1.001
9	215767	66.750253279723	1
9	215928	66.800253279723	1.001
9	215938	66.850253279723	1
9	216089	66.900253279723	1.001
9	216099	66.950253279723	1
9	216260	67.000253279723	1.001
9	216270	67.050253279723	1
9	216421	67.100253279723	1.001
9	216431	67.150253279723	1
9	216582	67.200253279723	1.001
9	216592	67.250253279723	1
9	216753	67.300253279723	1.001
9	216763	67.350253279723	1
9	216924	67.400253279723	1.001
9	216934	67.450253279723	1
9	217085	67.500253279723	1.001
9	217095	67.550253279723	1
9	217255	67.600253279723	1.001
9	217262	67.650253279723	1
9	217346	67.700253279723	1.001
9	217353	67.750253279723	1
9	217437	67.800253279723	1.001
9	217444	67.850253279723	1
9	217521	67.900253279723	1.001
9	217528	67.950253279723	1
9	217612	68.000253279723	1.001
9	217619	68.050253279723	1
9	217703	68.100253279723	1.001
9	217710	68.150253279723	1
9	217794	68.200253279723	1.001
9	217801	68.250253279723	1
9	217885	68.300253279723	1.001
9	217892	68.350253279723	1
9	217976	68.400253279723	1.001
9	217983	68.450253279723	1
9	218067	68.500253279723	1.001
9	218074	68.550253279723	1
9	218151	68.600253279723	1.001
9	218158	68.650253279723	1
9	218242	68.700253279723	1.001
9	218249	68.750253279723	1
9	218333	68.800253279723	1.001
9	218340	68.850253279723	1
9	218424	68.900253279723	1.001
9	218431	68.950253279723	1
9	218508	69.000253279723	1.001
9	218515	69.050253279723	1
9	218599	69.100253279723	1.001
9	218606	69.150253279723	1
9	218690	69.200253279723	1.001
9	218697	69.250253279723	1
9	218781	69.300253279723	1.001
9	218788	69.350253279723	1
9	218872	69.400253279723	1.001
9	218879	69.450253279723	1
9	218963	69.500253279723	1.001
9	218970	69.550253279723	1
9	219047	69.600253279723	1.001
9	219054	69.650253279723	1
9	219138	69.700253279723	1.001
9	219145	69.750253279723	1
9	219229	69.800253279723	1.001
9	219236	69.850253279723	1
9	219320	69.900253279723	1.001
9	219327	69.950253279723	1
9	219411	70.000253279723	1.001
9	219418	70.050253279723	1
9	219502	70.100253279723	1.001
9	219509	70.150253279723	1
9	219593	70.200253279723	1.001
9	219600	70.250253279723	1
9	219677	70.300253279723	1.001
9	219684	70.350253279723	1
9	219768	70.400253279723	1.001
9	219775	70.450253279723	1
9	219859	70.500253279723	1.001
9	219866	70.550253279723	1
9	219950	70.600253279723	1.001
9	219957	70.650253279723	1
9	220033	70.700253279723	1.001
9	220037	70.750253279723	1
9	220068	70.800253279723	1.001
9	220072	70.850253279723	1
9	220103	70.900253279723	1.001
9	220107	70.950253279723	1
9	220138	71.000253279723	1.001
9	220142	71.050253279723	1
9	220173	71.100253279723	1.001
9	220177	71.150253279723	1
9	220208	71.200253279723	1.001
9	220212	71.250253279723	1
9	220243	71.300253279723	1.001
9	220247	71.350253279723	1
9	220278	71.400253279723	1.001
9	220282	71.450253279723	1
9	220313	71.500253279723	1.001
9	220317	71.550253279723	1
9	220348	71.600253279723	1.001
9	220352	71.650253279723	1
9	220383	71.700253279723	1.001
9	220387	71.750253279723	1
9	220418	71.800253279723	1.001
9	220422	71.850253279723	1
9	220453	71.900253279723	1.001
9	220457	71.950253279723	1
9	220488	72.000253279723	1.001
9	220492	72.050253279723	1
9	220523	72.100253279723	1.001
9	220527	72.150253279723	1
9	220558	72.200253279723	1.001
9	220562	72.250253279723	1
9	220593	72.300253279723	1.001
9	220597	72.350253279723	1
9	220628	72.400253279723	1.001
9	220632	72.450253279723	1
9	220663	72.500253279723	1.001
9	220667	72.550253279723	1
9	220698	72.600253279723	1.001
9	220702	72.650253279723	1
9	220733	72.700253279723	1.001
9	220737	72.750253279723	1
9	220768	72.800253279723	1.001
9	220772	72.850253279723	1
9	220803	72.900253279723	1.001
9	220807	72.950253279723	1
9	220838	73.000253279723	1.001
9	220842	73.050253279723	1
9	220873	73.100253279723	1.001
9	220877	73.150253279723	1
9	220908	73.200253279723	1.001
9	220912	73.250253279723	1
9	220943	73.300253279723	1.001
9	220947	73.350253279723	1
9	220978	73.400253279723	1.001
9	220982	73.450253279723	1
9	221013	73.500253279723	1.001
9	221017	73.550253279723	1
9	221047	73.600253279723	1.001
9	221048	73.650253279723	1
9	221049	73.700253279723	1.001
9	221050	73.750253279723	1
9	221051	73.800253279723	1.001
9	221052	73.850253279723	1
9	221053	73.900253279723	1.001
9	221054	73.950253279723	1
9	221055	74.000253279723	1.001
9	221056	74.050253279723	1
9	221057	74.100253279723	1.001
9	221058	74.150253279723	1
9	221059	74.200253279723	1.001
9	221060	74.250253279723	1
9	221061	74.300253279723	1.001
9	221062	74.350253279723	1
9	221063	74.400253279723	1.001
9	221064	74.450253279723	1
9	221065	74.500253279723	1.001
9	221066	74.550253279723	1
9	221067	74.600253279723	1.001
9	221068	74.650253279723	1
9	221069	74.700253279723	1.001
9	221070	74.750253279723	1
9	221071	74.800253279723	1.001
9	221072	74.850253279723	1
9	221073	74.900253279723	1.001
9	221074	74.950253279723	1
9	221075	75.000253279723	1.001
9	221076	75.050253279723	1
9	221077	75.100253279723	1.001
9	221078	75.150253279723	1
9	221079	75.200253279723	1.001
9	221080	75.250253279723	1
9	221081	75.300253279723	1.001
9	221082	75.350253279723	1
9	221083	75.400253279723	1.001
9	221084	75.450253279723	1
9	221085	75.500253279723	1.001
9	221086	75.550253279723	1
9	221087	75.600253279723	1.001
9	221088	75.650253279723	1
9	221089	75.700253279723	1.001
9	221090	75.750253279723	1
9	221091	75.800253279723	1.001
9	221092	75.850253279723	1
9	221093	75.900253279723	1.001
9	221094	75.950253279723	1
