version 2
run VoIP-50ms_440B-1-20160923-14:15:39-14715
attr configname VoIP-50ms_440B
attr datetime 20160923-14:15:39
attr experiment VoIP-50ms_440B
attr inifile omnetpp.ini
attr iterationvars ""
attr iterationvars2 $repetition=1
attr measurement ""
attr network SymScenerio
attr processid 14715
attr repetition 1
attr replication #1
attr resultdir results
attr runnumber 1
attr seedset 1
param **.coreDebug false
param **.debug false
param *.**.nic.mac1609_4.bitrate 18Mbps
param *.**.nic.mac1609_4.txPower 20mW
param *.**.nic.mac1609_4.useServiceChannel true
param *.**.nic.phy80211p.analogueModels "xmldoc(\"config.xml\")"
param *.**.nic.phy80211p.decider "xmldoc(\"config.xml\")"
param *.**.nic.phy80211p.sensitivity -89dBm
param *.**.nic.phy80211p.thermalNoise -110dBm
param *.**.nic.phy80211p.usePropagationDelay true
param *.**.nic.phy80211p.useThermalNoise true
param *.annotations.draw false
param *.connectionManager.alpha 2.0
param *.connectionManager.carrierFrequency "5.890e9 Hz"
param *.connectionManager.pMax 20mW
param *.connectionManager.sat -89dBm
param *.connectionManager.sendDirect true
param *.manager.autoShutdown true
param *.manager.host "\"localhost\""
param *.manager.launchConfig "xmldoc(\"map.launchd.xml\")"
param *.manager.margin 25
param *.manager.moduleDisplayString "\"\""
param *.manager.moduleName "\"node\""
param *.manager.moduleType "\"symulacja.veins.nodes.Car\""
param *.manager.port 9999
param *.manager.updateInterval 0.1s
param *.node[*].appl.beaconInterval 1s
param *.node[*].appl.beaconPriority 3
param *.node[*].appl.dataOnSch false
param *.node[*].appl.dataPriority 2
param *.node[*].appl.debug false
param *.node[*].appl.maxOffset 0.005s
param *.node[*].appl.sendBeacons false
param *.node[*].appl.sendData true
param *.node[*].appl.sendVoIP true
param *.node[*].appl.voipInterval 0.050s
param *.node[*].appl.voipLengthBits 3520bit
param *.node[*].appl.voipOnSch true
param *.node[*].appl.voipPriority 3
param *.node[*].applType "\"Sym11p\""
param *.node[*].veinsmobility.x 0
param *.node[*].veinsmobility.y 0
param *.node[*].veinsmobility.z 1.895
param *.node[*].veinsmobilityType "\"symulacja.veins.modules.mobility.traci.TraCIMobility\""
param *.playgroundSizeX 9000m
param *.playgroundSizeY 9000m
param *.playgroundSizeZ 50m
param *.rsu[*].appl.beaconInterval 1s
param *.rsu[*].appl.beaconPriority 3
param *.rsu[*].appl.dataOnSch false
param *.rsu[*].appl.dataPriority 2
param *.rsu[*].appl.debug false
param *.rsu[*].appl.headerLength "256 bit"
param *.rsu[*].appl.maxOffset 0.005s
param *.rsu[*].appl.sendBeacons false
param *.rsu[*].appl.sendData false
param *.rsu[*].appl.sendVoIP false
param *.rsu[*].applType "\"SymRSU11p\""
param *.rsu[0].mobility.x 2160
param *.rsu[0].mobility.y 3100
param *.rsu[0].mobility.z 3
param *.world.use2D false
param *.world.useTorus false

vector 14  SymScenerio.rsu[0].nic.mac1609_4  "Interwały kanałów"  ETV
vector 23  SymScenerio.node[0].veinsmobility  posx  ETV
vector 24  SymScenerio.node[0].veinsmobility  posy  ETV
vector 22  SymScenerio.node[0].nic.mac1609_4  "Interwały kanałów"  ETV
vector 25  SymScenerio.node[0].veinsmobility  speed  ETV
vector 15  SymScenerio.node[0].appl  "TX Packets"  ETV
vector 16  SymScenerio.node[0].appl  "TX Total"  ETV
vector 17  SymScenerio.node[0].appl  Pakietyzacja  ETV
vector 5  SymScenerio.rsu[0].appl  nodeALL:vector  ETV
attr source  nodeALL
attr title  "Opoznienia ALL, vector"
vector 9  SymScenerio.rsu[0].appl  "RX Packet"  ETV
vector 0  SymScenerio.rsu[0].appl  node0:vector  ETV
attr source  node0
attr title  "Opoznienia node0, vector"
vector 26  SymScenerio.node[0].veinsmobility  acceleration  ETV
vector 27  SymScenerio.node[0].veinsmobility  co2emission  ETV
vector 36  SymScenerio.node[1].veinsmobility  posx  ETV
vector 37  SymScenerio.node[1].veinsmobility  posy  ETV
vector 35  SymScenerio.node[1].nic.mac1609_4  "Interwały kanałów"  ETV
vector 38  SymScenerio.node[1].veinsmobility  speed  ETV
vector 39  SymScenerio.node[1].veinsmobility  acceleration  ETV
vector 40  SymScenerio.node[1].veinsmobility  co2emission  ETV
vector 28  SymScenerio.node[1].appl  "TX Packets"  ETV
vector 29  SymScenerio.node[1].appl  "TX Total"  ETV
vector 30  SymScenerio.node[1].appl  Pakietyzacja  ETV
vector 1  SymScenerio.rsu[0].appl  node1:vector  ETV
attr source  node1
attr title  "Opoznienia node1, vector"
vector 49  SymScenerio.node[2].veinsmobility  posx  ETV
vector 50  SymScenerio.node[2].veinsmobility  posy  ETV
vector 48  SymScenerio.node[2].nic.mac1609_4  "Interwały kanałów"  ETV
vector 41  SymScenerio.node[2].appl  "TX Packets"  ETV
vector 42  SymScenerio.node[2].appl  "TX Total"  ETV
vector 43  SymScenerio.node[2].appl  Pakietyzacja  ETV
vector 2  SymScenerio.rsu[0].appl  node2:vector  ETV
attr source  node2
attr title  "Opoznienia node2, vector"
vector 51  SymScenerio.node[2].veinsmobility  speed  ETV
vector 52  SymScenerio.node[2].veinsmobility  acceleration  ETV
vector 53  SymScenerio.node[2].veinsmobility  co2emission  ETV
vector 62  SymScenerio.node[3].veinsmobility  posx  ETV
vector 63  SymScenerio.node[3].veinsmobility  posy  ETV
vector 61  SymScenerio.node[3].nic.mac1609_4  "Interwały kanałów"  ETV
vector 64  SymScenerio.node[3].veinsmobility  speed  ETV
vector 65  SymScenerio.node[3].veinsmobility  acceleration  ETV
vector 66  SymScenerio.node[3].veinsmobility  co2emission  ETV
vector 54  SymScenerio.node[3].appl  "TX Packets"  ETV
vector 55  SymScenerio.node[3].appl  "TX Total"  ETV
vector 56  SymScenerio.node[3].appl  Pakietyzacja  ETV
vector 3  SymScenerio.rsu[0].appl  node3:vector  ETV
attr source  node3
attr title  "Opoznienia node3, vector"
vector 75  SymScenerio.node[4].veinsmobility  posx  ETV
vector 76  SymScenerio.node[4].veinsmobility  posy  ETV
vector 74  SymScenerio.node[4].nic.mac1609_4  "Interwały kanałów"  ETV
vector 77  SymScenerio.node[4].veinsmobility  speed  ETV
vector 78  SymScenerio.node[4].veinsmobility  acceleration  ETV
vector 79  SymScenerio.node[4].veinsmobility  co2emission  ETV
vector 67  SymScenerio.node[4].appl  "TX Packets"  ETV
vector 68  SymScenerio.node[4].appl  "TX Total"  ETV
vector 69  SymScenerio.node[4].appl  Pakietyzacja  ETV
vector 4  SymScenerio.rsu[0].appl  node4:vector  ETV
attr source  node4
attr title  "Opoznienia node4, vector"
17	12	0.273377946275	1.002
17	30	0.323377946275	1.002
17	47	0.373377946275	1.002
17	65	0.423377946275	1.002
17	82	0.473377946275	1.002
17	100	0.523377946275	1.002
17	117	0.573377946275	1.002
17	135	0.623377946275	1.002
17	152	0.673377946275	1.002
17	170	0.723377946275	1.002
17	187	0.773377946275	1.002
17	205	0.823377946275	1.002
17	222	0.873377946275	1.002
17	240	0.923377946275	1.002
17	257	0.973377946275	1.002
17	275	1.023377946275	1.002
17	292	1.073377946275	1.002
17	310	1.123377946275	1.002
17	327	1.173377946275	1.002
17	345	1.223377946275	1.002
17	362	1.273377946275	1.002
17	380	1.323377946275	1.002
17	397	1.373377946275	1.002
17	415	1.423377946275	1.002
17	432	1.473377946275	1.002
17	450	1.523377946275	1.002
17	467	1.573377946275	1.002
17	485	1.623377946275	1.002
17	502	1.673377946275	1.002
17	520	1.723377946275	1.002
17	537	1.773377946275	1.002
17	555	1.823377946275	1.002
17	572	1.873377946275	1.002
17	590	1.923377946275	1.002
17	607	1.973377946275	1.002
17	625	2.023377946275	1.002
17	642	2.073377946275	1.002
17	660	2.123377946275	1.002
17	677	2.173377946275	1.002
17	695	2.223377946275	1.002
17	712	2.273377946275	1.002
17	730	2.323377946275	1.002
17	747	2.373377946275	1.002
17	765	2.423377946275	1.002
17	782	2.473377946275	1.002
17	800	2.523377946275	1.002
17	817	2.573377946275	1.002
17	835	2.623377946275	1.002
17	852	2.673377946275	1.002
17	870	2.723377946275	1.002
17	887	2.773377946275	1.002
17	905	2.823377946275	1.002
17	922	2.873377946275	1.002
17	940	2.923377946275	1.002
17	957	2.973377946275	1.002
17	975	3.023377946275	1.002
17	992	3.073377946275	1.002
17	1010	3.123377946275	1.002
17	1034	3.173377946275	1.002
17	1059	3.223377946275	1.002
17	1083	3.273377946275	1.002
17	1108	3.323377946275	1.002
17	1132	3.373377946275	1.002
17	1157	3.423377946275	1.002
17	1181	3.473377946275	1.002
17	1206	3.523377946275	1.002
17	1230	3.573377946275	1.002
17	1255	3.623377946275	1.002
17	1279	3.673377946275	1.002
17	1304	3.723377946275	1.002
17	1328	3.773377946275	1.002
17	1353	3.823377946275	1.002
17	1377	3.873377946275	1.002
17	1402	3.923377946275	1.002
17	1447	3.973377946275	1.002
17	1474	4.023377946275	1.002
17	1538	4.073377946275	1.002
17	1565	4.123377946275	1.002
17	1629	4.173377946275	1.002
17	1656	4.223377946275	1.002
17	1720	4.273377946275	1.002
17	1747	4.323377946275	1.002
17	1811	4.373377946275	1.002
17	1838	4.423377946275	1.002
17	1902	4.473377946275	1.002
17	1929	4.523377946275	1.002
17	1993	4.573377946275	1.002
17	2020	4.623377946275	1.002
17	2084	4.673377946275	1.002
17	2111	4.723377946275	1.002
17	2175	4.773377946275	1.002
17	2202	4.823377946275	1.002
17	2266	4.873377946275	1.002
17	2293	4.923377946275	1.002
17	2357	4.973377946275	1.002
17	2384	5.023377946275	1.002
17	2448	5.073377946275	1.002
17	2475	5.123377946275	1.002
17	2539	5.173377946275	1.002
17	2566	5.223377946275	1.002
17	2630	5.273377946275	1.002
17	2657	5.323377946275	1.002
17	2721	5.373377946275	1.002
17	2748	5.423377946275	1.002
17	2812	5.473377946275	1.002
17	2839	5.523377946275	1.002
17	2903	5.573377946275	1.002
17	2930	5.623377946275	1.002
17	2994	5.673377946275	1.002
17	3021	5.723377946275	1.002
17	3085	5.773377946275	1.002
17	3112	5.823377946275	1.002
17	3176	5.873377946275	1.002
17	3203	5.923377946275	1.002
17	3267	5.973377946275	1.002
17	3294	6.023377946275	1.002
17	3358	6.073377946275	1.002
17	3385	6.123377946275	1.002
17	3468	6.173377946275	1.002
17	3529	6.223377946275	1.002
17	3629	6.273377946275	1.002
17	3690	6.323377946275	1.002
17	3800	6.373377946275	1.002
17	3861	6.423377946275	1.002
17	3971	6.473377946275	1.002
17	4032	6.523377946275	1.002
17	4142	6.573377946275	1.002
17	4203	6.623377946275	1.002
17	4313	6.673377946275	1.002
17	4374	6.723377946275	1.002
17	4484	6.773377946275	1.002
17	4545	6.823377946275	1.002
17	4655	6.873377946275	1.002
17	4716	6.923377946275	1.002
17	4826	6.973377946275	1.002
17	4887	7.023377946275	1.002
17	4987	7.073377946275	1.002
17	5048	7.123377946275	1.002
17	5158	7.173377946275	1.002
17	5219	7.223377946275	1.002
17	5329	7.273377946275	1.002
17	5390	7.323377946275	1.002
17	5500	7.373377946275	1.002
17	5561	7.423377946275	1.002
17	5671	7.473377946275	1.002
17	5732	7.523377946275	1.002
17	5842	7.573377946275	1.002
17	5903	7.623377946275	1.002
17	6013	7.673377946275	1.002
17	6074	7.723377946275	1.002
17	6174	7.773377946275	1.002
17	6235	7.823377946275	1.002
17	6345	7.873377946275	1.002
17	6406	7.923377946275	1.002
17	6516	7.973377946275	1.002
17	6577	8.023377946275	1.002
17	6687	8.073377946275	1.002
17	6748	8.123377946275	1.002
17	6858	8.173377946275	1.002
17	6919	8.223377946275	1.002
17	7029	8.273377946275	1.002
17	7090	8.323377946275	1.002
17	7200	8.373377946275	1.002
17	7261	8.423377946275	1.002
17	7371	8.473377946275	1.002
17	7432	8.523377946275	1.002
17	7542	8.573377946275	1.002
17	7603	8.623377946275	1.002
17	7713	8.673377946275	1.002
17	7774	8.723377946275	1.002
17	7884	8.773377946275	1.002
17	7945	8.823377946275	1.002
17	8055	8.873377946275	1.002
17	8116	8.923377946275	1.002
17	8216	8.973377946275	1.002
17	8277	9.023377946275	1.002
17	8387	9.073377946275	1.002
17	8448	9.123377946275	1.002
17	8570	9.173377946275	1.002
17	8644	9.223377946275	1.002
17	8779	9.273377946275	1.002
17	8853	9.323377946275	1.002
17	8975	9.373377946275	1.002
17	9049	9.423377946275	1.002
17	9171	9.473377946275	1.002
17	9245	9.523377946275	1.002
17	9380	9.573377946275	1.002
17	9454	9.623377946275	1.002
17	9576	9.673377946275	1.002
17	9650	9.723377946275	1.002
17	9785	9.773377946275	1.002
17	9892	9.823377946275	1.002
17	10048	9.873377946275	1.002
17	10155	9.923377946275	1.002
17	10310	9.973377946275	1.002
17	10417	10.023377946275	1.002
17	10563	10.073377946275	1.002
17	10670	10.123377946275	1.002
17	10838	10.173377946275	1.002
17	10945	10.223377946275	1.002
17	11113	10.273377946275	1.002
17	11220	10.323377946275	1.002
17	11366	10.373377946275	1.002
17	11473	10.423377946275	1.002
17	11628	10.473377946275	1.002
17	11735	10.523377946275	1.002
17	11890	10.573377946275	1.002
17	11997	10.623377946275	1.002
17	12165	10.673377946275	1.002
17	12272	10.723377946275	1.002
17	12440	10.773377946275	1.002
17	12547	10.823377946275	1.002
17	12702	10.873377946275	1.002
17	12809	10.923377946275	1.002
17	12977	10.973377946275	1.002
17	13084	11.023377946275	1.002
17	13239	11.073377946275	1.002
17	13346	11.123377946275	1.002
17	13514	11.173377946275	1.002
17	13621	11.223377946275	1.002
17	13776	11.273377946275	1.002
17	13883	11.323377946275	1.002
17	14038	11.373377946275	1.002
17	14145	11.423377946275	1.002
17	14300	11.473377946275	1.002
17	14407	11.523377946275	1.002
17	14562	11.573377946275	1.002
17	14669	11.623377946275	1.002
17	14837	11.673377946275	1.002
17	14944	11.723377946275	1.002
17	15112	11.773377946275	1.002
17	15219	11.823377946275	1.002
17	15374	11.873377946275	1.002
17	15481	11.923377946275	1.002
17	15636	11.973377946275	1.002
17	15743	12.023377946275	1.002
17	15898	12.073377946275	1.002
17	16005	12.123377946275	1.002
17	16204	12.173377946275	1.002
17	16330	12.223377946275	1.002
17	16502	12.273377946275	1.002
17	16628	12.323377946275	1.002
17	16811	12.373377946275	1.002
17	16937	12.423377946275	1.002
17	17136	12.473377946275	1.002
17	17262	12.523377946275	1.002
17	17445	12.573377946275	1.002
17	17571	12.623377946275	1.002
17	17770	12.673377946275	1.002
17	17896	12.723377946275	1.002
17	18095	12.773377946275	1.002
17	18221	12.823377946275	1.002
17	18459	12.873377946275	1.002
17	18587	12.923377946275	1.002
17	18846	12.973377946275	1.002
17	18974	13.023377946275	1.002
17	19234	13.073377946275	1.002
17	19362	13.123377946275	1.002
17	19610	13.173377946275	1.002
17	19738	13.223377946275	1.002
17	19986	13.273377946275	1.002
17	20114	13.323377946275	1.002
17	20374	13.373377946275	1.002
17	20502	13.423377946275	1.002
17	20761	13.473377946275	1.002
17	20889	13.523377946275	1.002
17	21132	13.573377946275	1.002
17	21260	13.623377946275	1.002
17	21508	13.673377946275	1.002
17	21636	13.723377946275	1.002
17	21884	13.773377946275	1.002
17	22012	13.823377946275	1.002
17	22271	13.873377946275	1.002
17	22399	13.923377946275	1.002
17	22647	13.973377946275	1.002
17	22775	14.023377946275	1.002
17	23050	14.073377946275	1.002
17	23178	14.123377946275	1.002
17	23421	14.173377946275	1.002
17	23549	14.223377946275	1.002
17	23824	14.273377946275	1.002
17	23952	14.323377946275	1.002
17	24211	14.373377946275	1.002
17	24339	14.423377946275	1.002
17	24598	14.473377946275	1.002
17	24726	14.523377946275	1.002
17	24985	14.573377946275	1.002
17	25113	14.623377946275	1.002
17	25361	14.673377946275	1.002
17	25489	14.723377946275	1.002
17	25737	14.773377946275	1.002
17	25865	14.823377946275	1.002
17	26124	14.873377946275	1.002
17	26252	14.923377946275	1.002
17	26500	14.973377946275	1.002
17	26628	15.023377946275	1.002
17	26887	15.073377946275	1.002
17	27015	15.123377946275	1.002
17	27274	15.173377946275	1.002
17	27402	15.223377946275	1.002
17	27661	15.273377946275	1.002
17	27789	15.323377946275	1.002
17	28048	15.373377946275	1.002
17	28176	15.423377946275	1.002
17	28435	15.473377946275	1.002
17	28563	15.523377946275	1.002
17	28822	15.573377946275	1.002
17	28950	15.623377946275	1.002
17	29209	15.673377946275	1.002
17	29337	15.723377946275	1.002
17	29596	15.773377946275	1.002
17	29724	15.823377946275	1.002
17	29999	15.873377946275	1.002
17	30127	15.923377946275	1.002
17	30402	15.973377946275	1.002
17	30530	16.023377946275	1.002
17	30789	16.073377946275	1.002
17	30917	16.123377946275	1.002
17	31160	16.173377946275	1.002
17	31288	16.223377946275	1.002
17	31536	16.273377946275	1.002
17	31664	16.323377946275	1.002
17	31923	16.373377946275	1.002
17	32051	16.423377946275	1.002
17	32310	16.473377946275	1.002
17	32438	16.523377946275	1.002
17	32681	16.573377946275	1.002
17	32809	16.623377946275	1.002
17	33052	16.673377946275	1.002
17	33180	16.723377946275	1.002
17	33428	16.773377946275	1.002
17	33556	16.823377946275	1.002
17	33831	16.873377946275	1.002
17	33959	16.923377946275	1.002
17	34207	16.973377946275	1.002
17	34335	17.023377946275	1.002
17	34583	17.073377946275	1.002
17	34711	17.123377946275	1.002
17	34970	17.173377946275	1.002
17	35098	17.223377946275	1.002
17	35357	17.273377946275	1.002
17	35485	17.323377946275	1.002
17	35744	17.373377946275	1.002
17	35872	17.423377946275	1.002
17	36131	17.473377946275	1.002
17	36259	17.523377946275	1.002
17	36518	17.573377946275	1.002
17	36646	17.623377946275	1.002
17	36905	17.673377946275	1.002
17	37033	17.723377946275	1.002
17	37308	17.773377946275	1.002
17	37436	17.823377946275	1.002
17	37684	17.873377946275	1.002
17	37812	17.923377946275	1.002
17	38071	17.973377946275	1.002
17	38199	18.023377946275	1.002
17	38458	18.073377946275	1.002
17	38586	18.123377946275	1.002
17	38861	18.173377946275	1.002
17	38989	18.223377946275	1.002
17	39248	18.273377946275	1.002
17	39376	18.323377946275	1.002
17	39635	18.373377946275	1.002
17	39763	18.423377946275	1.002
17	40006	18.473377946275	1.002
17	40134	18.523377946275	1.002
17	40393	18.573377946275	1.002
17	40521	18.623377946275	1.002
17	40780	18.673377946275	1.002
17	40908	18.723377946275	1.002
17	41167	18.773377946275	1.002
17	41295	18.823377946275	1.002
17	41554	18.873377946275	1.002
17	41682	18.923377946275	1.002
17	41925	18.973377946275	1.002
17	42053	19.023377946275	1.002
17	42312	19.073377946275	1.002
17	42440	19.123377946275	1.002
17	42688	19.173377946275	1.002
17	42816	19.223377946275	1.002
17	43075	19.273377946275	1.002
17	43203	19.323377946275	1.002
17	43451	19.373377946275	1.002
17	43579	19.423377946275	1.002
17	43838	19.473377946275	1.002
17	43966	19.523377946275	1.002
17	44214	19.573377946275	1.002
17	44342	19.623377946275	1.002
17	44590	19.673377946275	1.002
17	44718	19.723377946275	1.002
17	44977	19.773377946275	1.002
17	45105	19.823377946275	1.002
17	45364	19.873377946275	1.002
17	45492	19.923377946275	1.002
17	45767	19.973377946275	1.002
17	45895	20.023377946275	1.002
17	46154	20.073377946275	1.002
17	46282	20.123377946275	1.002
17	46541	20.173377946275	1.002
17	46669	20.223377946275	1.002
17	46928	20.273377946275	1.002
17	47056	20.323377946275	1.002
17	47315	20.373377946275	1.002
17	47443	20.423377946275	1.002
17	47702	20.473377946275	1.002
17	47830	20.523377946275	1.002
17	48073	20.573377946275	1.002
17	48201	20.623377946275	1.002
17	48460	20.673377946275	1.002
17	48588	20.723377946275	1.002
17	48847	20.773377946275	1.002
17	48975	20.823377946275	1.002
17	49218	20.873377946275	1.002
17	49346	20.923377946275	1.002
17	49605	20.973377946275	1.002
17	49733	21.023377946275	1.002
17	49970	21.073377946275	1.002
17	50098	21.123377946275	1.002
17	50341	21.173377946275	1.002
17	50469	21.223377946275	1.002
17	50728	21.273377946275	1.002
17	50856	21.323377946275	1.002
17	51131	21.373377946275	1.002
17	51259	21.423377946275	1.002
17	51502	21.473377946275	1.002
17	51630	21.523377946275	1.002
17	51878	21.573377946275	1.002
17	52006	21.623377946275	1.002
17	52265	21.673377946275	1.002
17	52393	21.723377946275	1.002
17	52636	21.773377946275	1.002
17	52764	21.823377946275	1.002
17	53023	21.873377946275	1.002
17	53151	21.923377946275	1.002
17	53410	21.973377946275	1.002
17	53538	22.023377946275	1.002
17	53813	22.073377946275	1.002
17	53941	22.123377946275	1.002
17	54200	22.173377946275	1.002
17	54328	22.223377946275	1.002
17	54576	22.273377946275	1.002
17	54704	22.323377946275	1.002
17	54963	22.373377946275	1.002
17	55091	22.423377946275	1.002
17	55350	22.473377946275	1.002
17	55478	22.523377946275	1.002
17	55737	22.573377946275	1.002
17	55865	22.623377946275	1.002
17	56124	22.673377946275	1.002
17	56252	22.723377946275	1.002
17	56500	22.773377946275	1.002
17	56628	22.823377946275	1.002
17	56887	22.873377946275	1.002
17	57015	22.923377946275	1.002
17	57274	22.973377946275	1.002
17	57402	23.023377946275	1.002
17	57661	23.073377946275	1.002
17	57789	23.123377946275	1.002
17	58048	23.173377946275	1.002
17	58176	23.223377946275	1.002
17	58419	23.273377946275	1.002
17	58547	23.323377946275	1.002
17	58795	23.373377946275	1.002
17	58923	23.423377946275	1.002
17	59171	23.473377946275	1.002
17	59299	23.523377946275	1.002
17	59547	23.573377946275	1.002
17	59675	23.623377946275	1.002
17	59918	23.673377946275	1.002
17	60046	23.723377946275	1.002
17	60294	23.773377946275	1.002
17	60422	23.823377946275	1.002
17	60670	23.873377946275	1.002
17	60798	23.923377946275	1.002
17	61041	23.973377946275	1.002
17	61169	24.023377946275	1.002
17	61428	24.073377946275	1.002
17	61556	24.123377946275	1.002
17	61815	24.173377946275	1.002
17	61943	24.223377946275	1.002
17	62202	24.273377946275	1.002
17	62330	24.323377946275	1.002
17	62578	24.373377946275	1.002
17	62706	24.423377946275	1.002
17	62965	24.473377946275	1.002
17	63093	24.523377946275	1.002
17	63352	24.573377946275	1.002
17	63480	24.623377946275	1.002
17	63723	24.673377946275	1.002
17	63851	24.723377946275	1.002
17	64110	24.773377946275	1.002
17	64238	24.823377946275	1.002
17	64486	24.873377946275	1.002
17	64614	24.923377946275	1.002
17	64889	24.973377946275	1.002
17	65017	25.023377946275	1.002
17	65276	25.073377946275	1.002
17	65404	25.123377946275	1.002
17	65663	25.173377946275	1.002
17	65791	25.223377946275	1.002
17	66066	25.273377946275	1.002
17	66194	25.323377946275	1.002
17	66453	25.373377946275	1.002
17	66581	25.423377946275	1.002
17	66829	25.473377946275	1.002
17	66957	25.523377946275	1.002
17	67205	25.573377946275	1.002
17	67333	25.623377946275	1.002
17	67592	25.673377946275	1.002
17	67720	25.723377946275	1.002
17	67979	25.773377946275	1.002
17	68107	25.823377946275	1.002
17	68350	25.873377946275	1.002
17	68478	25.923377946275	1.002
17	68721	25.973377946275	1.002
17	68849	26.023377946275	1.002
17	69108	26.073377946275	1.002
17	69236	26.123377946275	1.002
17	69495	26.173377946275	1.002
17	69623	26.223377946275	1.002
17	69871	26.273377946275	1.002
17	69999	26.323377946275	1.002
17	70242	26.373377946275	1.002
17	70370	26.423377946275	1.002
17	70613	26.473377946275	1.002
17	70741	26.523377946275	1.002
17	70984	26.573377946275	1.002
17	71112	26.623377946275	1.002
17	71371	26.673377946275	1.002
17	71499	26.723377946275	1.002
17	71742	26.773377946275	1.002
17	71870	26.823377946275	1.002
17	72129	26.873377946275	1.002
17	72257	26.923377946275	1.002
17	72516	26.973377946275	1.002
17	72644	27.023377946275	1.002
17	72903	27.073377946275	1.002
17	73031	27.123377946275	1.002
17	73290	27.173377946275	1.002
17	73418	27.223377946275	1.002
17	73677	27.273377946275	1.002
17	73805	27.323377946275	1.002
17	74080	27.373377946275	1.002
17	74208	27.423377946275	1.002
17	74451	27.473377946275	1.002
17	74579	27.523377946275	1.002
17	74827	27.573377946275	1.002
17	74955	27.623377946275	1.002
17	75198	27.673377946275	1.002
17	75326	27.723377946275	1.002
17	75574	27.773377946275	1.002
17	75702	27.823377946275	1.002
17	75961	27.873377946275	1.002
17	76089	27.923377946275	1.002
17	76348	27.973377946275	1.002
17	76476	28.023377946275	1.002
17	76724	28.073377946275	1.002
17	76852	28.123377946275	1.002
17	77095	28.173377946275	1.002
17	77223	28.223377946275	1.002
17	77498	28.273377946275	1.002
17	77626	28.323377946275	1.002
17	77885	28.373377946275	1.002
17	78013	28.423377946275	1.002
17	78272	28.473377946275	1.002
17	78400	28.523377946275	1.002
17	78659	28.573377946275	1.002
17	78787	28.623377946275	1.002
17	79030	28.673377946275	1.002
17	79158	28.723377946275	1.002
17	79406	28.773377946275	1.002
17	79534	28.823377946275	1.002
17	79793	28.873377946275	1.002
17	79921	28.923377946275	1.002
17	80158	28.973377946275	1.002
17	80286	29.023377946275	1.002
17	80529	29.073377946275	1.002
17	80657	29.123377946275	1.002
17	80916	29.173377946275	1.002
17	81044	29.223377946275	1.002
17	81319	29.273377946275	1.002
17	81447	29.323377946275	1.002
17	81706	29.373377946275	1.002
17	81834	29.423377946275	1.002
17	82093	29.473377946275	1.002
17	82221	29.523377946275	1.002
17	82480	29.573377946275	1.002
17	82608	29.623377946275	1.002
17	82867	29.673377946275	1.002
17	82995	29.723377946275	1.002
17	83254	29.773377946275	1.002
17	83382	29.823377946275	1.002
17	83641	29.873377946275	1.002
17	83769	29.923377946275	1.002
17	84044	29.973377946275	1.002
17	84172	30.023377946275	1.002
17	84420	30.073377946275	1.002
17	84548	30.123377946275	1.002
17	84807	30.173377946275	1.002
17	84935	30.223377946275	1.002
17	85210	30.273377946275	1.002
17	85338	30.323377946275	1.002
17	85586	30.373377946275	1.002
17	85714	30.423377946275	1.002
17	85989	30.473377946275	1.002
17	86117	30.523377946275	1.002
17	86376	30.573377946275	1.002
17	86504	30.623377946275	1.002
17	86763	30.673377946275	1.002
17	86891	30.723377946275	1.002
17	87150	30.773377946275	1.002
17	87278	30.823377946275	1.002
17	87521	30.873377946275	1.002
17	87649	30.923377946275	1.002
17	87908	30.973377946275	1.002
17	88036	31.023377946275	1.002
17	88311	31.073377946275	1.002
17	88439	31.123377946275	1.002
17	88682	31.173377946275	1.002
17	88810	31.223377946275	1.002
17	89085	31.273377946275	1.002
17	89213	31.323377946275	1.002
17	89456	31.373377946275	1.002
17	89584	31.423377946275	1.002
17	89832	31.473377946275	1.002
17	89960	31.523377946275	1.002
17	90208	31.573377946275	1.002
17	90336	31.623377946275	1.002
17	90584	31.673377946275	1.002
17	90712	31.723377946275	1.002
17	90960	31.773377946275	1.002
17	91088	31.823377946275	1.002
17	91325	31.873377946275	1.002
17	91453	31.923377946275	1.002
17	91696	31.973377946275	1.002
17	91824	32.023377946275	1.002
17	92083	32.073377946275	1.002
17	92211	32.123377946275	1.002
17	92470	32.173377946275	1.002
17	92598	32.223377946275	1.002
17	92857	32.273377946275	1.002
17	92985	32.323377946275	1.002
17	93244	32.373377946275	1.002
17	93372	32.423377946275	1.002
17	93631	32.473377946275	1.002
17	93759	32.523377946275	1.002
17	94018	32.573377946275	1.002
17	94146	32.623377946275	1.002
17	94394	32.673377946275	1.002
17	94522	32.723377946275	1.002
17	94781	32.773377946275	1.002
17	94909	32.823377946275	1.002
17	95168	32.873377946275	1.002
17	95296	32.923377946275	1.002
17	95539	32.973377946275	1.002
17	95667	33.023377946275	1.002
17	95910	33.073377946275	1.002
17	96038	33.123377946275	1.002
17	96313	33.173377946275	1.002
17	96441	33.223377946275	1.002
17	96684	33.273377946275	1.002
17	96812	33.323377946275	1.002
17	97071	33.373377946275	1.002
17	97199	33.423377946275	1.002
17	97458	33.473377946275	1.002
17	97586	33.523377946275	1.002
17	97834	33.573377946275	1.002
17	97962	33.623377946275	1.002
17	98210	33.673377946275	1.002
17	98338	33.723377946275	1.002
17	98586	33.773377946275	1.002
17	98714	33.823377946275	1.002
17	98957	33.873377946275	1.002
17	99085	33.923377946275	1.002
17	99333	33.973377946275	1.002
17	99461	34.023377946275	1.002
17	99704	34.073377946275	1.002
17	99832	34.123377946275	1.002
17	100080	34.173377946275	1.002
17	100208	34.223377946275	1.002
17	100467	34.273377946275	1.002
17	100595	34.323377946275	1.002
17	100870	34.373377946275	1.002
17	100998	34.423377946275	1.002
17	101257	34.473377946275	1.002
17	101385	34.523377946275	1.002
17	101660	34.573377946275	1.002
17	101788	34.623377946275	1.002
17	102047	34.673377946275	1.002
17	102175	34.723377946275	1.002
17	102434	34.773377946275	1.002
17	102562	34.823377946275	1.002
17	102821	34.873377946275	1.002
17	102949	34.923377946275	1.002
17	103208	34.973377946275	1.002
17	103336	35.023377946275	1.002
17	103595	35.073377946275	1.002
17	103723	35.123377946275	1.002
17	103982	35.173377946275	1.002
17	104110	35.223377946275	1.002
17	104353	35.273377946275	1.002
17	104481	35.323377946275	1.002
17	104729	35.373377946275	1.002
17	104857	35.423377946275	1.002
17	105100	35.473377946275	1.002
17	105228	35.523377946275	1.002
17	105487	35.573377946275	1.002
17	105615	35.623377946275	1.002
17	105863	35.673377946275	1.002
17	105991	35.723377946275	1.002
17	106234	35.773377946275	1.002
17	106362	35.823377946275	1.002
17	106610	35.873377946275	1.002
17	106738	35.923377946275	1.002
17	106997	35.973377946275	1.002
17	107125	36.023377946275	1.002
17	107373	36.073377946275	1.002
17	107501	36.123377946275	1.002
17	107760	36.173377946275	1.002
17	107888	36.223377946275	1.002
17	108147	36.273377946275	1.002
17	108275	36.323377946275	1.002
17	108534	36.373377946275	1.002
17	108662	36.423377946275	1.002
17	108905	36.473377946275	1.002
17	109033	36.523377946275	1.002
17	109276	36.573377946275	1.002
17	109404	36.623377946275	1.002
17	109647	36.673377946275	1.002
17	109775	36.723377946275	1.002
17	110034	36.773377946275	1.002
17	110162	36.823377946275	1.002
17	110410	36.873377946275	1.002
17	110538	36.923377946275	1.002
17	110786	36.973377946275	1.002
17	110914	37.023377946275	1.002
17	111173	37.073377946275	1.002
17	111301	37.123377946275	1.002
17	111549	37.173377946275	1.002
17	111677	37.223377946275	1.002
17	111925	37.273377946275	1.002
17	112053	37.323377946275	1.002
17	112312	37.373377946275	1.002
17	112440	37.423377946275	1.002
17	112715	37.473377946275	1.002
17	112843	37.523377946275	1.002
17	113086	37.573377946275	1.002
17	113214	37.623377946275	1.002
17	113462	37.673377946275	1.002
17	113590	37.723377946275	1.002
17	113849	37.773377946275	1.002
17	113977	37.823377946275	1.002
17	114236	37.873377946275	1.002
17	114364	37.923377946275	1.002
17	114623	37.973377946275	1.002
17	114751	38.023377946275	1.002
17	115010	38.073377946275	1.002
17	115138	38.123377946275	1.002
17	115381	38.173377946275	1.002
17	115509	38.223377946275	1.002
17	115752	38.273377946275	1.002
17	115880	38.323377946275	1.002
17	116155	38.373377946275	1.002
17	116283	38.423377946275	1.002
17	116542	38.473377946275	1.002
17	116670	38.523377946275	1.002
17	116918	38.573377946275	1.002
17	117046	38.623377946275	1.002
17	117294	38.673377946275	1.002
17	117422	38.723377946275	1.002
17	117681	38.773377946275	1.002
17	117809	38.823377946275	1.002
17	118084	38.873377946275	1.002
17	118212	38.923377946275	1.002
17	118487	38.973377946275	1.002
17	118615	39.023377946275	1.002
17	118874	39.073377946275	1.002
17	119002	39.123377946275	1.002
17	119261	39.173377946275	1.002
17	119389	39.223377946275	1.002
17	119648	39.273377946275	1.002
17	119776	39.323377946275	1.002
17	120024	39.373377946275	1.002
17	120152	39.423377946275	1.002
17	120411	39.473377946275	1.002
17	120539	39.523377946275	1.002
17	120787	39.573377946275	1.002
17	120915	39.623377946275	1.002
17	121174	39.673377946275	1.002
17	121302	39.723377946275	1.002
17	121561	39.773377946275	1.002
17	121689	39.823377946275	1.002
17	121926	39.873377946275	1.002
17	122054	39.923377946275	1.002
17	122313	39.973377946275	1.002
17	122441	40.023377946275	1.002
17	122689	40.073377946275	1.002
17	122817	40.123377946275	1.002
17	123060	40.173377946275	1.002
17	123188	40.223377946275	1.002
17	123463	40.273377946275	1.002
17	123591	40.323377946275	1.002
17	123834	40.373377946275	1.002
17	123962	40.423377946275	1.002
17	124210	40.473377946275	1.002
17	124338	40.523377946275	1.002
17	124581	40.573377946275	1.002
17	124709	40.623377946275	1.002
17	124968	40.673377946275	1.002
17	125096	40.723377946275	1.002
17	125355	40.773377946275	1.002
17	125483	40.823377946275	1.002
17	125758	40.873377946275	1.002
17	125886	40.923377946275	1.002
17	126145	40.973377946275	1.002
17	126273	41.023377946275	1.002
17	126532	41.073377946275	1.002
17	126660	41.123377946275	1.002
17	126908	41.173377946275	1.002
17	127036	41.223377946275	1.002
17	127311	41.273377946275	1.002
17	127439	41.323377946275	1.002
17	127698	41.373377946275	1.002
17	127826	41.423377946275	1.002
17	128069	41.473377946275	1.002
17	128197	41.523377946275	1.002
17	128440	41.573377946275	1.002
17	128568	41.623377946275	1.002
17	128816	41.673377946275	1.002
17	128944	41.723377946275	1.002
17	129219	41.773377946275	1.002
17	129347	41.823377946275	1.002
17	129606	41.873377946275	1.002
17	129734	41.923377946275	1.002
17	129982	41.973377946275	1.002
17	130110	42.023377946275	1.002
17	130369	42.073377946275	1.002
17	130497	42.123377946275	1.002
17	130740	42.173377946275	1.002
17	130868	42.223377946275	1.002
17	131116	42.273377946275	1.002
17	131244	42.323377946275	1.002
17	131487	42.373377946275	1.002
17	131615	42.423377946275	1.002
17	131874	42.473377946275	1.002
17	132002	42.523377946275	1.002
17	132245	42.573377946275	1.002
17	132373	42.623377946275	1.002
17	132648	42.673377946275	1.002
17	132776	42.723377946275	1.002
17	133024	42.773377946275	1.002
17	133152	42.823377946275	1.002
17	133400	42.873377946275	1.002
17	133528	42.923377946275	1.002
17	133787	42.973377946275	1.002
17	133915	43.023377946275	1.002
17	134174	43.073377946275	1.002
17	134302	43.123377946275	1.002
17	134561	43.173377946275	1.002
17	134689	43.223377946275	1.002
17	134948	43.273377946275	1.002
17	135076	43.323377946275	1.002
17	135351	43.373377946275	1.002
17	135479	43.423377946275	1.002
17	135754	43.473377946275	1.002
17	135882	43.523377946275	1.002
17	136130	43.573377946275	1.002
17	136258	43.623377946275	1.002
17	136517	43.673377946275	1.002
17	136645	43.723377946275	1.002
17	136904	43.773377946275	1.002
17	137032	43.823377946275	1.002
17	137291	43.873377946275	1.002
17	137419	43.923377946275	1.002
17	137662	43.973377946275	1.002
17	137790	44.023377946275	1.002
17	138049	44.073377946275	1.002
17	138177	44.123377946275	1.002
17	138436	44.173377946275	1.002
17	138564	44.223377946275	1.002
17	138823	44.273377946275	1.002
17	138951	44.323377946275	1.002
17	139199	44.373377946275	1.002
17	139327	44.423377946275	1.002
17	139586	44.473377946275	1.002
17	139714	44.523377946275	1.002
17	139973	44.573377946275	1.002
17	140101	44.623377946275	1.002
17	140360	44.673377946275	1.002
17	140488	44.723377946275	1.002
17	140747	44.773377946275	1.002
17	140875	44.823377946275	1.002
17	141134	44.873377946275	1.002
17	141262	44.923377946275	1.002
17	141537	44.973377946275	1.002
17	141665	45.023377946275	1.002
17	141908	45.073377946275	1.002
17	142036	45.123377946275	1.002
17	142311	45.173377946275	1.002
17	142439	45.223377946275	1.002
17	142698	45.273377946275	1.002
17	142826	45.323377946275	1.002
17	143074	45.373377946275	1.002
17	143202	45.423377946275	1.002
17	143450	45.473377946275	1.002
17	143578	45.523377946275	1.002
17	143826	45.573377946275	1.002
17	143954	45.623377946275	1.002
17	144213	45.673377946275	1.002
17	144341	45.723377946275	1.002
17	144616	45.773377946275	1.002
17	144744	45.823377946275	1.002
17	145003	45.873377946275	1.002
17	145131	45.923377946275	1.002
17	145390	45.973377946275	1.002
17	145518	46.023377946275	1.002
17	145761	46.073377946275	1.002
17	145889	46.123377946275	1.002
17	146148	46.173377946275	1.002
17	146276	46.223377946275	1.002
17	146524	46.273377946275	1.002
17	146652	46.323377946275	1.002
17	146927	46.373377946275	1.002
17	147055	46.423377946275	1.002
17	147314	46.473377946275	1.002
17	147442	46.523377946275	1.002
17	147701	46.573377946275	1.002
17	147829	46.623377946275	1.002
17	148088	46.673377946275	1.002
17	148216	46.723377946275	1.002
17	148491	46.773377946275	1.002
17	148619	46.823377946275	1.002
17	148878	46.873377946275	1.002
17	149006	46.923377946275	1.002
17	149254	46.973377946275	1.002
17	149382	47.023377946275	1.002
17	149625	47.073377946275	1.002
17	149753	47.123377946275	1.002
17	150012	47.173377946275	1.002
17	150140	47.223377946275	1.002
17	150388	47.273377946275	1.002
17	150516	47.323377946275	1.002
17	150775	47.373377946275	1.002
17	150903	47.423377946275	1.002
17	151162	47.473377946275	1.002
17	151290	47.523377946275	1.002
17	151549	47.573377946275	1.002
17	151677	47.623377946275	1.002
17	151936	47.673377946275	1.002
17	152064	47.723377946275	1.002
17	152307	47.773377946275	1.002
17	152435	47.823377946275	1.002
17	152672	47.873377946275	1.002
17	152800	47.923377946275	1.002
17	153048	47.973377946275	1.002
17	153176	48.023377946275	1.002
17	153435	48.073377946275	1.002
17	153563	48.123377946275	1.002
17	153806	48.173377946275	1.002
17	153934	48.223377946275	1.002
17	154177	48.273377946275	1.002
17	154305	48.323377946275	1.002
17	154564	48.373377946275	1.002
17	154692	48.423377946275	1.002
17	154935	48.473377946275	1.002
17	155063	48.523377946275	1.002
17	155322	48.573377946275	1.002
17	155450	48.623377946275	1.002
17	155698	48.673377946275	1.002
17	155826	48.723377946275	1.002
17	156063	48.773377946275	1.002
17	156191	48.823377946275	1.002
17	156450	48.873377946275	1.002
17	156578	48.923377946275	1.002
17	156837	48.973377946275	1.002
17	156965	49.023377946275	1.002
17	157224	49.073377946275	1.002
17	157352	49.123377946275	1.002
17	157611	49.173377946275	1.002
17	157739	49.223377946275	1.002
17	157998	49.273377946275	1.002
17	158126	49.323377946275	1.002
17	158385	49.373377946275	1.002
17	158513	49.423377946275	1.002
17	158788	49.473377946275	1.002
17	158916	49.523377946275	1.002
17	159175	49.573377946275	1.002
17	159303	49.623377946275	1.002
17	159578	49.673377946275	1.002
17	159706	49.723377946275	1.002
17	159965	49.773377946275	1.002
17	160093	49.823377946275	1.002
17	160336	49.873377946275	1.002
17	160464	49.923377946275	1.002
17	160739	49.973377946275	1.002
17	160867	50.023377946275	1.002
17	161142	50.073377946275	1.002
17	161270	50.123377946275	1.002
17	161513	50.173377946275	1.002
17	161641	50.223377946275	1.002
17	161884	50.273377946275	1.002
17	162012	50.323377946275	1.002
17	162260	50.373377946275	1.002
17	162388	50.423377946275	1.002
17	162631	50.473377946275	1.002
17	162759	50.523377946275	1.002
17	163007	50.573377946275	1.002
17	163135	50.623377946275	1.002
17	163383	50.673377946275	1.002
17	163511	50.723377946275	1.002
17	163770	50.773377946275	1.002
17	163898	50.823377946275	1.002
17	164141	50.873377946275	1.002
17	164269	50.923377946275	1.002
17	164544	50.973377946275	1.002
17	164672	51.023377946275	1.002
17	164947	51.073377946275	1.002
17	165075	51.123377946275	1.002
17	165334	51.173377946275	1.002
17	165462	51.223377946275	1.002
17	165721	51.273377946275	1.002
17	165849	51.323377946275	1.002
17	166108	51.373377946275	1.002
17	166236	51.423377946275	1.002
17	166484	51.473377946275	1.002
17	166612	51.523377946275	1.002
17	166860	51.573377946275	1.002
17	166988	51.623377946275	1.002
17	167247	51.673377946275	1.002
17	167375	51.723377946275	1.002
17	167623	51.773377946275	1.002
17	167751	51.823377946275	1.002
17	167999	51.873377946275	1.002
17	168127	51.923377946275	1.002
17	168386	51.973377946275	1.002
17	168514	52.023377946275	1.002
17	168757	52.073377946275	1.002
17	168885	52.123377946275	1.002
17	169133	52.173377946275	1.002
17	169261	52.223377946275	1.002
17	169520	52.273377946275	1.002
17	169648	52.323377946275	1.002
17	169923	52.373377946275	1.002
17	170051	52.423377946275	1.002
17	170310	52.473377946275	1.002
17	170438	52.523377946275	1.002
17	170697	52.573377946275	1.002
17	170825	52.623377946275	1.002
17	171084	52.673377946275	1.002
17	171212	52.723377946275	1.002
17	171471	52.773377946275	1.002
17	171599	52.823377946275	1.002
17	171858	52.873377946275	1.002
17	171986	52.923377946275	1.002
17	172223	52.973377946275	1.002
17	172351	53.023377946275	1.002
17	172610	53.073377946275	1.002
17	172738	53.123377946275	1.002
17	172981	53.173377946275	1.002
17	173109	53.223377946275	1.002
17	173357	53.273377946275	1.002
17	173485	53.323377946275	1.002
17	173744	53.373377946275	1.002
17	173872	53.423377946275	1.002
17	174120	53.473377946275	1.002
17	174248	53.523377946275	1.002
17	174507	53.573377946275	1.002
17	174635	53.623377946275	1.002
17	174883	53.673377946275	1.002
17	175011	53.723377946275	1.002
17	175270	53.773377946275	1.002
17	175398	53.823377946275	1.002
17	175657	53.873377946275	1.002
17	175785	53.923377946275	1.002
17	176028	53.973377946275	1.002
17	176156	54.023377946275	1.002
17	176404	54.073377946275	1.002
17	176532	54.123377946275	1.002
17	176791	54.173377946275	1.002
17	176919	54.223377946275	1.002
17	177178	54.273377946275	1.002
17	177306	54.323377946275	1.002
17	177554	54.373377946275	1.002
17	177682	54.423377946275	1.002
17	177941	54.473377946275	1.002
17	178069	54.523377946275	1.002
17	178317	54.573377946275	1.002
17	178445	54.623377946275	1.002
17	178704	54.673377946275	1.002
17	178832	54.723377946275	1.002
17	179091	54.773377946275	1.002
17	179219	54.823377946275	1.002
17	179478	54.873377946275	1.002
17	179606	54.923377946275	1.002
17	179865	54.973377946275	1.002
17	179993	55.023377946275	1.002
17	180241	55.073377946275	1.002
17	180369	55.123377946275	1.002
17	180628	55.173377946275	1.002
17	180756	55.223377946275	1.002
17	181015	55.273377946275	1.002
17	181143	55.323377946275	1.002
17	181402	55.373377946275	1.002
17	181530	55.423377946275	1.002
17	181778	55.473377946275	1.002
17	181906	55.523377946275	1.002
17	182165	55.573377946275	1.002
17	182293	55.623377946275	1.002
17	182552	55.673377946275	1.002
17	182680	55.723377946275	1.002
17	182939	55.773377946275	1.002
17	183067	55.823377946275	1.002
17	183315	55.873377946275	1.002
17	183443	55.923377946275	1.002
17	183691	55.973377946275	1.002
17	183819	56.023377946275	1.002
17	184094	56.073377946275	1.002
17	184222	56.123377946275	1.002
17	184481	56.173377946275	1.002
17	184609	56.223377946275	1.002
17	184868	56.273377946275	1.002
17	184996	56.323377946275	1.002
17	185244	56.373377946275	1.002
17	185372	56.423377946275	1.002
17	185615	56.473377946275	1.002
17	185743	56.523377946275	1.002
17	185986	56.573377946275	1.002
17	186114	56.623377946275	1.002
17	186389	56.673377946275	1.002
17	186517	56.723377946275	1.002
17	186760	56.773377946275	1.002
17	186888	56.823377946275	1.002
17	187136	56.873377946275	1.002
17	187264	56.923377946275	1.002
17	187523	56.973377946275	1.002
17	187651	57.023377946275	1.002
17	187910	57.073377946275	1.002
17	188038	57.123377946275	1.002
17	188297	57.173377946275	1.002
17	188425	57.223377946275	1.002
17	188684	57.273377946275	1.002
17	188812	57.323377946275	1.002
17	189071	57.373377946275	1.002
17	189199	57.423377946275	1.002
17	189458	57.473377946275	1.002
17	189586	57.523377946275	1.002
17	189845	57.573377946275	1.002
17	189973	57.623377946275	1.002
17	190221	57.673377946275	1.002
17	190349	57.723377946275	1.002
17	190608	57.773377946275	1.002
17	190736	57.823377946275	1.002
17	190995	57.873377946275	1.002
17	191123	57.923377946275	1.002
17	191398	57.973377946275	1.002
17	191526	58.023377946275	1.002
17	191785	58.073377946275	1.002
17	191913	58.123377946275	1.002
17	192172	58.173377946275	1.002
17	192300	58.223377946275	1.002
17	192559	58.273377946275	1.002
17	192687	58.323377946275	1.002
17	192946	58.373377946275	1.002
17	193074	58.423377946275	1.002
17	193333	58.473377946275	1.002
17	193461	58.523377946275	1.002
17	193720	58.573377946275	1.002
17	193848	58.623377946275	1.002
17	194107	58.673377946275	1.002
17	194235	58.723377946275	1.002
17	194494	58.773377946275	1.002
17	194622	58.823377946275	1.002
17	194865	58.873377946275	1.002
17	194993	58.923377946275	1.002
17	195252	58.973377946275	1.002
17	195380	59.023377946275	1.002
17	195628	59.073377946275	1.002
17	195756	59.123377946275	1.002
17	196004	59.173377946275	1.002
17	196132	59.223377946275	1.002
17	196391	59.273377946275	1.002
17	196519	59.323377946275	1.002
17	196767	59.373377946275	1.002
17	196895	59.423377946275	1.002
17	197138	59.473377946275	1.002
17	197266	59.523377946275	1.002
17	197525	59.573377946275	1.002
17	197653	59.623377946275	1.002
17	197912	59.673377946275	1.002
17	198040	59.723377946275	1.002
17	198288	59.773377946275	1.002
17	198416	59.823377946275	1.002
17	198675	59.873377946275	1.002
17	198803	59.923377946275	1.002
17	199046	59.973377946275	1.002
17	199174	60.023377946275	1.002
17	199417	60.073377946275	1.002
17	199545	60.123377946275	1.002
17	199804	60.173377946275	1.002
17	199932	60.223377946275	1.002
17	200191	60.273377946275	1.002
17	200319	60.323377946275	1.002
17	200578	60.373377946275	1.002
17	200706	60.423377946275	1.002
17	200954	60.473377946275	1.002
17	201082	60.523377946275	1.002
17	201341	60.573377946275	1.002
17	201469	60.623377946275	1.002
17	201744	60.673377946275	1.002
17	201872	60.723377946275	1.002
17	202131	60.773377946275	1.002
17	202259	60.823377946275	1.002
17	202507	60.873377946275	1.002
17	202635	60.923377946275	1.002
17	202878	60.973377946275	1.002
17	203006	61.023377946275	1.002
17	203265	61.073377946275	1.002
17	203393	61.123377946275	1.002
17	203652	61.173377946275	1.002
17	203780	61.223377946275	1.002
17	204023	61.273377946275	1.002
17	204151	61.323377946275	1.002
17	204410	61.373377946275	1.002
17	204538	61.423377946275	1.002
17	204786	61.473377946275	1.002
17	204914	61.523377946275	1.002
17	205173	61.573377946275	1.002
16	12	0.273377946275	1
16	30	0.323377946275	2
16	47	0.373377946275	3
16	65	0.423377946275	4
16	82	0.473377946275	5
16	100	0.523377946275	6
16	117	0.573377946275	7
16	135	0.623377946275	8
16	152	0.673377946275	9
16	170	0.723377946275	10
16	187	0.773377946275	11
16	205	0.823377946275	12
16	222	0.873377946275	13
16	240	0.923377946275	14
16	257	0.973377946275	15
16	275	1.023377946275	16
16	292	1.073377946275	17
16	310	1.123377946275	18
16	327	1.173377946275	19
16	345	1.223377946275	20
16	362	1.273377946275	21
16	380	1.323377946275	22
16	397	1.373377946275	23
16	415	1.423377946275	24
16	432	1.473377946275	25
16	450	1.523377946275	26
16	467	1.573377946275	27
16	485	1.623377946275	28
16	502	1.673377946275	29
16	520	1.723377946275	30
16	537	1.773377946275	31
16	555	1.823377946275	32
16	572	1.873377946275	33
16	590	1.923377946275	34
16	607	1.973377946275	35
16	625	2.023377946275	36
16	642	2.073377946275	37
16	660	2.123377946275	38
16	677	2.173377946275	39
16	695	2.223377946275	40
16	712	2.273377946275	41
16	730	2.323377946275	42
16	747	2.373377946275	43
16	765	2.423377946275	44
16	782	2.473377946275	45
16	800	2.523377946275	46
16	817	2.573377946275	47
16	835	2.623377946275	48
16	852	2.673377946275	49
16	870	2.723377946275	50
16	887	2.773377946275	51
16	905	2.823377946275	52
16	922	2.873377946275	53
16	940	2.923377946275	54
16	957	2.973377946275	55
16	975	3.023377946275	56
16	992	3.073377946275	57
16	1010	3.123377946275	58
16	1034	3.173377946275	59
16	1059	3.223377946275	60
16	1083	3.273377946275	61
16	1108	3.323377946275	62
16	1132	3.373377946275	63
16	1157	3.423377946275	64
16	1181	3.473377946275	65
16	1206	3.523377946275	66
16	1230	3.573377946275	67
16	1255	3.623377946275	68
16	1279	3.673377946275	69
16	1304	3.723377946275	70
16	1328	3.773377946275	71
16	1353	3.823377946275	72
16	1377	3.873377946275	73
16	1402	3.923377946275	74
16	1447	3.973377946275	76
16	1474	4.023377946275	78
16	1538	4.073377946275	80
16	1565	4.123377946275	82
16	1629	4.173377946275	84
16	1656	4.223377946275	86
16	1720	4.273377946275	88
16	1747	4.323377946275	90
16	1811	4.373377946275	92
16	1838	4.423377946275	94
16	1902	4.473377946275	96
16	1929	4.523377946275	98
16	1993	4.573377946275	100
16	2020	4.623377946275	102
16	2084	4.673377946275	104
16	2111	4.723377946275	106
16	2175	4.773377946275	108
16	2202	4.823377946275	110
16	2266	4.873377946275	112
16	2293	4.923377946275	114
16	2357	4.973377946275	116
16	2384	5.023377946275	118
16	2448	5.073377946275	120
16	2475	5.123377946275	122
16	2539	5.173377946275	124
16	2566	5.223377946275	126
16	2630	5.273377946275	128
16	2657	5.323377946275	130
16	2721	5.373377946275	132
16	2748	5.423377946275	134
16	2812	5.473377946275	136
16	2839	5.523377946275	138
16	2903	5.573377946275	140
16	2930	5.623377946275	142
16	2994	5.673377946275	144
16	3021	5.723377946275	146
16	3085	5.773377946275	148
16	3112	5.823377946275	150
16	3176	5.873377946275	152
16	3203	5.923377946275	154
16	3267	5.973377946275	156
16	3294	6.023377946275	158
16	3358	6.073377946275	160
16	3385	6.123377946275	162
16	3468	6.173377946275	164
16	3529	6.223377946275	167
16	3629	6.273377946275	170
16	3690	6.323377946275	173
16	3800	6.373377946275	176
16	3861	6.423377946275	179
16	3971	6.473377946275	182
16	4032	6.523377946275	185
16	4142	6.573377946275	188
16	4203	6.623377946275	191
16	4313	6.673377946275	194
16	4374	6.723377946275	197
16	4484	6.773377946275	200
16	4545	6.823377946275	203
16	4655	6.873377946275	206
16	4716	6.923377946275	209
16	4826	6.973377946275	212
16	4887	7.023377946275	215
16	4987	7.073377946275	218
16	5048	7.123377946275	221
16	5158	7.173377946275	224
16	5219	7.223377946275	227
16	5329	7.273377946275	230
16	5390	7.323377946275	233
16	5500	7.373377946275	236
16	5561	7.423377946275	239
16	5671	7.473377946275	242
16	5732	7.523377946275	245
16	5842	7.573377946275	248
16	5903	7.623377946275	251
16	6013	7.673377946275	254
16	6074	7.723377946275	257
16	6174	7.773377946275	260
16	6235	7.823377946275	263
16	6345	7.873377946275	266
16	6406	7.923377946275	269
16	6516	7.973377946275	272
16	6577	8.023377946275	275
16	6687	8.073377946275	278
16	6748	8.123377946275	281
16	6858	8.173377946275	284
16	6919	8.223377946275	287
16	7029	8.273377946275	290
16	7090	8.323377946275	293
16	7200	8.373377946275	296
16	7261	8.423377946275	299
16	7371	8.473377946275	302
16	7432	8.523377946275	305
16	7542	8.573377946275	308
16	7603	8.623377946275	311
16	7713	8.673377946275	314
16	7774	8.723377946275	317
16	7884	8.773377946275	320
16	7945	8.823377946275	323
16	8055	8.873377946275	326
16	8116	8.923377946275	329
16	8216	8.973377946275	332
16	8277	9.023377946275	335
16	8387	9.073377946275	338
16	8448	9.123377946275	341
16	8570	9.173377946275	344
16	8644	9.223377946275	347
16	8779	9.273377946275	350
16	8853	9.323377946275	353
16	8975	9.373377946275	356
16	9049	9.423377946275	359
16	9171	9.473377946275	362
16	9245	9.523377946275	365
16	9380	9.573377946275	368
16	9454	9.623377946275	371
16	9576	9.673377946275	374
16	9650	9.723377946275	377
16	9785	9.773377946275	380
16	9892	9.823377946275	384
16	10048	9.873377946275	388
16	10155	9.923377946275	392
16	10310	9.973377946275	396
16	10417	10.023377946275	400
16	10563	10.073377946275	404
16	10670	10.123377946275	408
16	10838	10.173377946275	412
16	10945	10.223377946275	416
16	11113	10.273377946275	420
16	11220	10.323377946275	424
16	11366	10.373377946275	428
16	11473	10.423377946275	432
16	11628	10.473377946275	436
16	11735	10.523377946275	440
16	11890	10.573377946275	444
16	11997	10.623377946275	448
16	12165	10.673377946275	452
16	12272	10.723377946275	456
16	12440	10.773377946275	460
16	12547	10.823377946275	464
16	12702	10.873377946275	468
16	12809	10.923377946275	472
16	12977	10.973377946275	476
16	13084	11.023377946275	480
16	13239	11.073377946275	484
16	13346	11.123377946275	488
16	13514	11.173377946275	492
16	13621	11.223377946275	496
16	13776	11.273377946275	500
16	13883	11.323377946275	504
16	14038	11.373377946275	508
16	14145	11.423377946275	512
16	14300	11.473377946275	516
16	14407	11.523377946275	520
16	14562	11.573377946275	524
16	14669	11.623377946275	528
16	14837	11.673377946275	532
16	14944	11.723377946275	536
16	15112	11.773377946275	540
16	15219	11.823377946275	544
16	15374	11.873377946275	548
16	15481	11.923377946275	552
16	15636	11.973377946275	556
16	15743	12.023377946275	560
16	15898	12.073377946275	564
16	16005	12.123377946275	568
16	16204	12.173377946275	572
16	16330	12.223377946275	576
16	16502	12.273377946275	580
16	16628	12.323377946275	584
16	16811	12.373377946275	588
16	16937	12.423377946275	592
16	17136	12.473377946275	596
16	17262	12.523377946275	600
16	17445	12.573377946275	604
16	17571	12.623377946275	608
16	17770	12.673377946275	612
16	17896	12.723377946275	616
16	18095	12.773377946275	620
16	18221	12.823377946275	624
16	18459	12.873377946275	629
16	18587	12.923377946275	634
16	18846	12.973377946275	639
16	18974	13.023377946275	644
16	19234	13.073377946275	649
16	19362	13.123377946275	654
16	19610	13.173377946275	659
16	19738	13.223377946275	664
16	19986	13.273377946275	669
16	20114	13.323377946275	674
16	20374	13.373377946275	679
16	20502	13.423377946275	684
16	20761	13.473377946275	689
16	20889	13.523377946275	694
16	21132	13.573377946275	699
16	21260	13.623377946275	704
16	21508	13.673377946275	709
16	21636	13.723377946275	714
16	21884	13.773377946275	719
16	22012	13.823377946275	724
16	22271	13.873377946275	729
16	22399	13.923377946275	734
16	22647	13.973377946275	739
16	22775	14.023377946275	744
16	23050	14.073377946275	749
16	23178	14.123377946275	754
16	23421	14.173377946275	759
16	23549	14.223377946275	764
16	23824	14.273377946275	769
16	23952	14.323377946275	774
16	24211	14.373377946275	779
16	24339	14.423377946275	784
16	24598	14.473377946275	789
16	24726	14.523377946275	794
16	24985	14.573377946275	799
16	25113	14.623377946275	804
16	25361	14.673377946275	809
16	25489	14.723377946275	814
16	25737	14.773377946275	819
16	25865	14.823377946275	824
16	26124	14.873377946275	829
16	26252	14.923377946275	834
16	26500	14.973377946275	839
16	26628	15.023377946275	844
16	26887	15.073377946275	849
16	27015	15.123377946275	854
16	27274	15.173377946275	859
16	27402	15.223377946275	864
16	27661	15.273377946275	869
16	27789	15.323377946275	874
16	28048	15.373377946275	879
16	28176	15.423377946275	884
16	28435	15.473377946275	889
16	28563	15.523377946275	894
16	28822	15.573377946275	899
16	28950	15.623377946275	904
16	29209	15.673377946275	909
16	29337	15.723377946275	914
16	29596	15.773377946275	919
16	29724	15.823377946275	924
16	29999	15.873377946275	929
16	30127	15.923377946275	934
16	30402	15.973377946275	939
16	30530	16.023377946275	944
16	30789	16.073377946275	949
16	30917	16.123377946275	954
16	31160	16.173377946275	959
16	31288	16.223377946275	964
16	31536	16.273377946275	969
16	31664	16.323377946275	974
16	31923	16.373377946275	979
16	32051	16.423377946275	984
16	32310	16.473377946275	989
16	32438	16.523377946275	994
16	32681	16.573377946275	999
16	32809	16.623377946275	1004
16	33052	16.673377946275	1009
16	33180	16.723377946275	1014
16	33428	16.773377946275	1019
16	33556	16.823377946275	1024
16	33831	16.873377946275	1029
16	33959	16.923377946275	1034
16	34207	16.973377946275	1039
16	34335	17.023377946275	1044
16	34583	17.073377946275	1049
16	34711	17.123377946275	1054
16	34970	17.173377946275	1059
16	35098	17.223377946275	1064
16	35357	17.273377946275	1069
16	35485	17.323377946275	1074
16	35744	17.373377946275	1079
16	35872	17.423377946275	1084
16	36131	17.473377946275	1089
16	36259	17.523377946275	1094
16	36518	17.573377946275	1099
16	36646	17.623377946275	1104
16	36905	17.673377946275	1109
16	37033	17.723377946275	1114
16	37308	17.773377946275	1119
16	37436	17.823377946275	1124
16	37684	17.873377946275	1129
16	37812	17.923377946275	1134
16	38071	17.973377946275	1139
16	38199	18.023377946275	1144
16	38458	18.073377946275	1149
16	38586	18.123377946275	1154
16	38861	18.173377946275	1159
16	38989	18.223377946275	1164
16	39248	18.273377946275	1169
16	39376	18.323377946275	1174
16	39635	18.373377946275	1179
16	39763	18.423377946275	1184
16	40006	18.473377946275	1189
16	40134	18.523377946275	1194
16	40393	18.573377946275	1199
16	40521	18.623377946275	1204
16	40780	18.673377946275	1209
16	40908	18.723377946275	1214
16	41167	18.773377946275	1219
16	41295	18.823377946275	1224
16	41554	18.873377946275	1229
16	41682	18.923377946275	1234
16	41925	18.973377946275	1239
16	42053	19.023377946275	1244
16	42312	19.073377946275	1249
16	42440	19.123377946275	1254
16	42688	19.173377946275	1259
16	42816	19.223377946275	1264
16	43075	19.273377946275	1269
16	43203	19.323377946275	1274
16	43451	19.373377946275	1279
16	43579	19.423377946275	1284
16	43838	19.473377946275	1289
16	43966	19.523377946275	1294
16	44214	19.573377946275	1299
16	44342	19.623377946275	1304
16	44590	19.673377946275	1309
16	44718	19.723377946275	1314
16	44977	19.773377946275	1319
16	45105	19.823377946275	1324
16	45364	19.873377946275	1329
16	45492	19.923377946275	1334
16	45767	19.973377946275	1339
16	45895	20.023377946275	1344
16	46154	20.073377946275	1349
16	46282	20.123377946275	1354
16	46541	20.173377946275	1359
16	46669	20.223377946275	1364
16	46928	20.273377946275	1369
16	47056	20.323377946275	1374
16	47315	20.373377946275	1379
16	47443	20.423377946275	1384
16	47702	20.473377946275	1389
16	47830	20.523377946275	1394
16	48073	20.573377946275	1399
16	48201	20.623377946275	1404
16	48460	20.673377946275	1409
16	48588	20.723377946275	1414
16	48847	20.773377946275	1419
16	48975	20.823377946275	1424
16	49218	20.873377946275	1429
16	49346	20.923377946275	1434
16	49605	20.973377946275	1439
16	49733	21.023377946275	1444
16	49970	21.073377946275	1449
16	50098	21.123377946275	1454
16	50341	21.173377946275	1459
16	50469	21.223377946275	1464
16	50728	21.273377946275	1469
16	50856	21.323377946275	1474
16	51131	21.373377946275	1479
16	51259	21.423377946275	1484
16	51502	21.473377946275	1489
16	51630	21.523377946275	1494
16	51878	21.573377946275	1499
16	52006	21.623377946275	1504
16	52265	21.673377946275	1509
16	52393	21.723377946275	1514
16	52636	21.773377946275	1519
16	52764	21.823377946275	1524
16	53023	21.873377946275	1529
16	53151	21.923377946275	1534
16	53410	21.973377946275	1539
16	53538	22.023377946275	1544
16	53813	22.073377946275	1549
16	53941	22.123377946275	1554
16	54200	22.173377946275	1559
16	54328	22.223377946275	1564
16	54576	22.273377946275	1569
16	54704	22.323377946275	1574
16	54963	22.373377946275	1579
16	55091	22.423377946275	1584
16	55350	22.473377946275	1589
16	55478	22.523377946275	1594
16	55737	22.573377946275	1599
16	55865	22.623377946275	1604
16	56124	22.673377946275	1609
16	56252	22.723377946275	1614
16	56500	22.773377946275	1619
16	56628	22.823377946275	1624
16	56887	22.873377946275	1629
16	57015	22.923377946275	1634
16	57274	22.973377946275	1639
16	57402	23.023377946275	1644
16	57661	23.073377946275	1649
16	57789	23.123377946275	1654
16	58048	23.173377946275	1659
16	58176	23.223377946275	1664
16	58419	23.273377946275	1669
16	58547	23.323377946275	1674
16	58795	23.373377946275	1679
16	58923	23.423377946275	1684
16	59171	23.473377946275	1689
16	59299	23.523377946275	1694
16	59547	23.573377946275	1699
16	59675	23.623377946275	1704
16	59918	23.673377946275	1709
16	60046	23.723377946275	1714
16	60294	23.773377946275	1719
16	60422	23.823377946275	1724
16	60670	23.873377946275	1729
16	60798	23.923377946275	1734
16	61041	23.973377946275	1739
16	61169	24.023377946275	1744
16	61428	24.073377946275	1749
16	61556	24.123377946275	1754
16	61815	24.173377946275	1759
16	61943	24.223377946275	1764
16	62202	24.273377946275	1769
16	62330	24.323377946275	1774
16	62578	24.373377946275	1779
16	62706	24.423377946275	1784
16	62965	24.473377946275	1789
16	63093	24.523377946275	1794
16	63352	24.573377946275	1799
16	63480	24.623377946275	1804
16	63723	24.673377946275	1809
16	63851	24.723377946275	1814
16	64110	24.773377946275	1819
16	64238	24.823377946275	1824
16	64486	24.873377946275	1829
16	64614	24.923377946275	1834
16	64889	24.973377946275	1839
16	65017	25.023377946275	1844
16	65276	25.073377946275	1849
16	65404	25.123377946275	1854
16	65663	25.173377946275	1859
16	65791	25.223377946275	1864
16	66066	25.273377946275	1869
16	66194	25.323377946275	1874
16	66453	25.373377946275	1879
16	66581	25.423377946275	1884
16	66829	25.473377946275	1889
16	66957	25.523377946275	1894
16	67205	25.573377946275	1899
16	67333	25.623377946275	1904
16	67592	25.673377946275	1909
16	67720	25.723377946275	1914
16	67979	25.773377946275	1919
16	68107	25.823377946275	1924
16	68350	25.873377946275	1929
16	68478	25.923377946275	1934
16	68721	25.973377946275	1939
16	68849	26.023377946275	1944
16	69108	26.073377946275	1949
16	69236	26.123377946275	1954
16	69495	26.173377946275	1959
16	69623	26.223377946275	1964
16	69871	26.273377946275	1969
16	69999	26.323377946275	1974
16	70242	26.373377946275	1979
16	70370	26.423377946275	1984
16	70613	26.473377946275	1989
16	70741	26.523377946275	1994
16	70984	26.573377946275	1999
16	71112	26.623377946275	2004
16	71371	26.673377946275	2009
16	71499	26.723377946275	2014
16	71742	26.773377946275	2019
16	71870	26.823377946275	2024
16	72129	26.873377946275	2029
16	72257	26.923377946275	2034
16	72516	26.973377946275	2039
16	72644	27.023377946275	2044
16	72903	27.073377946275	2049
16	73031	27.123377946275	2054
16	73290	27.173377946275	2059
16	73418	27.223377946275	2064
16	73677	27.273377946275	2069
16	73805	27.323377946275	2074
16	74080	27.373377946275	2079
16	74208	27.423377946275	2084
16	74451	27.473377946275	2089
16	74579	27.523377946275	2094
16	74827	27.573377946275	2099
16	74955	27.623377946275	2104
16	75198	27.673377946275	2109
16	75326	27.723377946275	2114
16	75574	27.773377946275	2119
16	75702	27.823377946275	2124
16	75961	27.873377946275	2129
16	76089	27.923377946275	2134
16	76348	27.973377946275	2139
16	76476	28.023377946275	2144
16	76724	28.073377946275	2149
16	76852	28.123377946275	2154
16	77095	28.173377946275	2159
16	77223	28.223377946275	2164
16	77498	28.273377946275	2169
16	77626	28.323377946275	2174
16	77885	28.373377946275	2179
16	78013	28.423377946275	2184
16	78272	28.473377946275	2189
16	78400	28.523377946275	2194
16	78659	28.573377946275	2199
16	78787	28.623377946275	2204
16	79030	28.673377946275	2209
16	79158	28.723377946275	2214
16	79406	28.773377946275	2219
16	79534	28.823377946275	2224
16	79793	28.873377946275	2229
16	79921	28.923377946275	2234
16	80158	28.973377946275	2239
16	80286	29.023377946275	2244
16	80529	29.073377946275	2249
16	80657	29.123377946275	2254
16	80916	29.173377946275	2259
16	81044	29.223377946275	2264
16	81319	29.273377946275	2269
16	81447	29.323377946275	2274
16	81706	29.373377946275	2279
16	81834	29.423377946275	2284
16	82093	29.473377946275	2289
16	82221	29.523377946275	2294
16	82480	29.573377946275	2299
16	82608	29.623377946275	2304
16	82867	29.673377946275	2309
16	82995	29.723377946275	2314
16	83254	29.773377946275	2319
16	83382	29.823377946275	2324
16	83641	29.873377946275	2329
16	83769	29.923377946275	2334
16	84044	29.973377946275	2339
16	84172	30.023377946275	2344
16	84420	30.073377946275	2349
16	84548	30.123377946275	2354
16	84807	30.173377946275	2359
16	84935	30.223377946275	2364
16	85210	30.273377946275	2369
16	85338	30.323377946275	2374
16	85586	30.373377946275	2379
16	85714	30.423377946275	2384
16	85989	30.473377946275	2389
16	86117	30.523377946275	2394
16	86376	30.573377946275	2399
16	86504	30.623377946275	2404
16	86763	30.673377946275	2409
16	86891	30.723377946275	2414
16	87150	30.773377946275	2419
16	87278	30.823377946275	2424
16	87521	30.873377946275	2429
16	87649	30.923377946275	2434
16	87908	30.973377946275	2439
16	88036	31.023377946275	2444
16	88311	31.073377946275	2449
16	88439	31.123377946275	2454
16	88682	31.173377946275	2459
16	88810	31.223377946275	2464
16	89085	31.273377946275	2469
16	89213	31.323377946275	2474
16	89456	31.373377946275	2479
16	89584	31.423377946275	2484
16	89832	31.473377946275	2489
16	89960	31.523377946275	2494
16	90208	31.573377946275	2499
16	90336	31.623377946275	2504
16	90584	31.673377946275	2509
16	90712	31.723377946275	2514
16	90960	31.773377946275	2519
16	91088	31.823377946275	2524
16	91325	31.873377946275	2529
16	91453	31.923377946275	2534
16	91696	31.973377946275	2539
16	91824	32.023377946275	2544
16	92083	32.073377946275	2549
16	92211	32.123377946275	2554
16	92470	32.173377946275	2559
16	92598	32.223377946275	2564
16	92857	32.273377946275	2569
16	92985	32.323377946275	2574
16	93244	32.373377946275	2579
16	93372	32.423377946275	2584
16	93631	32.473377946275	2589
16	93759	32.523377946275	2594
16	94018	32.573377946275	2599
16	94146	32.623377946275	2604
16	94394	32.673377946275	2609
16	94522	32.723377946275	2614
16	94781	32.773377946275	2619
16	94909	32.823377946275	2624
16	95168	32.873377946275	2629
16	95296	32.923377946275	2634
16	95539	32.973377946275	2639
16	95667	33.023377946275	2644
16	95910	33.073377946275	2649
16	96038	33.123377946275	2654
16	96313	33.173377946275	2659
16	96441	33.223377946275	2664
16	96684	33.273377946275	2669
16	96812	33.323377946275	2674
16	97071	33.373377946275	2679
16	97199	33.423377946275	2684
16	97458	33.473377946275	2689
16	97586	33.523377946275	2694
16	97834	33.573377946275	2699
16	97962	33.623377946275	2704
16	98210	33.673377946275	2709
16	98338	33.723377946275	2714
16	98586	33.773377946275	2719
16	98714	33.823377946275	2724
16	98957	33.873377946275	2729
16	99085	33.923377946275	2734
16	99333	33.973377946275	2739
16	99461	34.023377946275	2744
16	99704	34.073377946275	2749
16	99832	34.123377946275	2754
16	100080	34.173377946275	2759
16	100208	34.223377946275	2764
16	100467	34.273377946275	2769
16	100595	34.323377946275	2774
16	100870	34.373377946275	2779
16	100998	34.423377946275	2784
16	101257	34.473377946275	2789
16	101385	34.523377946275	2794
16	101660	34.573377946275	2799
16	101788	34.623377946275	2804
16	102047	34.673377946275	2809
16	102175	34.723377946275	2814
16	102434	34.773377946275	2819
16	102562	34.823377946275	2824
16	102821	34.873377946275	2829
16	102949	34.923377946275	2834
16	103208	34.973377946275	2839
16	103336	35.023377946275	2844
16	103595	35.073377946275	2849
16	103723	35.123377946275	2854
16	103982	35.173377946275	2859
16	104110	35.223377946275	2864
16	104353	35.273377946275	2869
16	104481	35.323377946275	2874
16	104729	35.373377946275	2879
16	104857	35.423377946275	2884
16	105100	35.473377946275	2889
16	105228	35.523377946275	2894
16	105487	35.573377946275	2899
16	105615	35.623377946275	2904
16	105863	35.673377946275	2909
16	105991	35.723377946275	2914
16	106234	35.773377946275	2919
16	106362	35.823377946275	2924
16	106610	35.873377946275	2929
16	106738	35.923377946275	2934
16	106997	35.973377946275	2939
16	107125	36.023377946275	2944
16	107373	36.073377946275	2949
16	107501	36.123377946275	2954
16	107760	36.173377946275	2959
16	107888	36.223377946275	2964
16	108147	36.273377946275	2969
16	108275	36.323377946275	2974
16	108534	36.373377946275	2979
16	108662	36.423377946275	2984
16	108905	36.473377946275	2989
16	109033	36.523377946275	2994
16	109276	36.573377946275	2999
16	109404	36.623377946275	3004
16	109647	36.673377946275	3009
16	109775	36.723377946275	3014
16	110034	36.773377946275	3019
16	110162	36.823377946275	3024
16	110410	36.873377946275	3029
16	110538	36.923377946275	3034
16	110786	36.973377946275	3039
16	110914	37.023377946275	3044
16	111173	37.073377946275	3049
16	111301	37.123377946275	3054
16	111549	37.173377946275	3059
16	111677	37.223377946275	3064
16	111925	37.273377946275	3069
16	112053	37.323377946275	3074
16	112312	37.373377946275	3079
16	112440	37.423377946275	3084
16	112715	37.473377946275	3089
16	112843	37.523377946275	3094
16	113086	37.573377946275	3099
16	113214	37.623377946275	3104
16	113462	37.673377946275	3109
16	113590	37.723377946275	3114
16	113849	37.773377946275	3119
16	113977	37.823377946275	3124
16	114236	37.873377946275	3129
16	114364	37.923377946275	3134
16	114623	37.973377946275	3139
16	114751	38.023377946275	3144
16	115010	38.073377946275	3149
16	115138	38.123377946275	3154
16	115381	38.173377946275	3159
16	115509	38.223377946275	3164
16	115752	38.273377946275	3169
16	115880	38.323377946275	3174
16	116155	38.373377946275	3179
16	116283	38.423377946275	3184
16	116542	38.473377946275	3189
16	116670	38.523377946275	3194
16	116918	38.573377946275	3199
16	117046	38.623377946275	3204
16	117294	38.673377946275	3209
16	117422	38.723377946275	3214
16	117681	38.773377946275	3219
16	117809	38.823377946275	3224
16	118084	38.873377946275	3229
16	118212	38.923377946275	3234
16	118487	38.973377946275	3239
16	118615	39.023377946275	3244
16	118874	39.073377946275	3249
16	119002	39.123377946275	3254
16	119261	39.173377946275	3259
16	119389	39.223377946275	3264
16	119648	39.273377946275	3269
16	119776	39.323377946275	3274
16	120024	39.373377946275	3279
16	120152	39.423377946275	3284
16	120411	39.473377946275	3289
16	120539	39.523377946275	3294
16	120787	39.573377946275	3299
16	120915	39.623377946275	3304
16	121174	39.673377946275	3309
16	121302	39.723377946275	3314
16	121561	39.773377946275	3319
16	121689	39.823377946275	3324
16	121926	39.873377946275	3329
16	122054	39.923377946275	3334
16	122313	39.973377946275	3339
16	122441	40.023377946275	3344
16	122689	40.073377946275	3349
16	122817	40.123377946275	3354
16	123060	40.173377946275	3359
16	123188	40.223377946275	3364
16	123463	40.273377946275	3369
16	123591	40.323377946275	3374
16	123834	40.373377946275	3379
16	123962	40.423377946275	3384
16	124210	40.473377946275	3389
16	124338	40.523377946275	3394
16	124581	40.573377946275	3399
16	124709	40.623377946275	3404
16	124968	40.673377946275	3409
16	125096	40.723377946275	3414
16	125355	40.773377946275	3419
16	125483	40.823377946275	3424
16	125758	40.873377946275	3429
16	125886	40.923377946275	3434
16	126145	40.973377946275	3439
16	126273	41.023377946275	3444
16	126532	41.073377946275	3449
16	126660	41.123377946275	3454
16	126908	41.173377946275	3459
16	127036	41.223377946275	3464
16	127311	41.273377946275	3469
16	127439	41.323377946275	3474
16	127698	41.373377946275	3479
16	127826	41.423377946275	3484
16	128069	41.473377946275	3489
16	128197	41.523377946275	3494
16	128440	41.573377946275	3499
16	128568	41.623377946275	3504
16	128816	41.673377946275	3509
16	128944	41.723377946275	3514
16	129219	41.773377946275	3519
16	129347	41.823377946275	3524
16	129606	41.873377946275	3529
16	129734	41.923377946275	3534
16	129982	41.973377946275	3539
16	130110	42.023377946275	3544
16	130369	42.073377946275	3549
16	130497	42.123377946275	3554
16	130740	42.173377946275	3559
16	130868	42.223377946275	3564
16	131116	42.273377946275	3569
16	131244	42.323377946275	3574
16	131487	42.373377946275	3579
16	131615	42.423377946275	3584
16	131874	42.473377946275	3589
16	132002	42.523377946275	3594
16	132245	42.573377946275	3599
16	132373	42.623377946275	3604
16	132648	42.673377946275	3609
16	132776	42.723377946275	3614
16	133024	42.773377946275	3619
16	133152	42.823377946275	3624
16	133400	42.873377946275	3629
16	133528	42.923377946275	3634
16	133787	42.973377946275	3639
16	133915	43.023377946275	3644
16	134174	43.073377946275	3649
16	134302	43.123377946275	3654
16	134561	43.173377946275	3659
16	134689	43.223377946275	3664
16	134948	43.273377946275	3669
16	135076	43.323377946275	3674
16	135351	43.373377946275	3679
16	135479	43.423377946275	3684
16	135754	43.473377946275	3689
16	135882	43.523377946275	3694
16	136130	43.573377946275	3699
16	136258	43.623377946275	3704
16	136517	43.673377946275	3709
16	136645	43.723377946275	3714
16	136904	43.773377946275	3719
16	137032	43.823377946275	3724
16	137291	43.873377946275	3729
16	137419	43.923377946275	3734
16	137662	43.973377946275	3739
16	137790	44.023377946275	3744
16	138049	44.073377946275	3749
16	138177	44.123377946275	3754
16	138436	44.173377946275	3759
16	138564	44.223377946275	3764
16	138823	44.273377946275	3769
16	138951	44.323377946275	3774
16	139199	44.373377946275	3779
16	139327	44.423377946275	3784
16	139586	44.473377946275	3789
16	139714	44.523377946275	3794
16	139973	44.573377946275	3799
16	140101	44.623377946275	3804
16	140360	44.673377946275	3809
16	140488	44.723377946275	3814
16	140747	44.773377946275	3819
16	140875	44.823377946275	3824
16	141134	44.873377946275	3829
16	141262	44.923377946275	3834
16	141537	44.973377946275	3839
16	141665	45.023377946275	3844
16	141908	45.073377946275	3849
16	142036	45.123377946275	3854
16	142311	45.173377946275	3859
16	142439	45.223377946275	3864
16	142698	45.273377946275	3869
16	142826	45.323377946275	3874
16	143074	45.373377946275	3879
16	143202	45.423377946275	3884
16	143450	45.473377946275	3889
16	143578	45.523377946275	3894
16	143826	45.573377946275	3899
16	143954	45.623377946275	3904
16	144213	45.673377946275	3909
16	144341	45.723377946275	3914
16	144616	45.773377946275	3919
16	144744	45.823377946275	3924
16	145003	45.873377946275	3929
16	145131	45.923377946275	3934
16	145390	45.973377946275	3939
16	145518	46.023377946275	3944
16	145761	46.073377946275	3949
16	145889	46.123377946275	3954
16	146148	46.173377946275	3959
16	146276	46.223377946275	3964
16	146524	46.273377946275	3969
16	146652	46.323377946275	3974
16	146927	46.373377946275	3979
16	147055	46.423377946275	3984
16	147314	46.473377946275	3989
16	147442	46.523377946275	3994
16	147701	46.573377946275	3999
16	147829	46.623377946275	4004
16	148088	46.673377946275	4009
16	148216	46.723377946275	4014
16	148491	46.773377946275	4019
16	148619	46.823377946275	4024
16	148878	46.873377946275	4029
16	149006	46.923377946275	4034
16	149254	46.973377946275	4039
16	149382	47.023377946275	4044
16	149625	47.073377946275	4049
16	149753	47.123377946275	4054
16	150012	47.173377946275	4059
16	150140	47.223377946275	4064
16	150388	47.273377946275	4069
16	150516	47.323377946275	4074
16	150775	47.373377946275	4079
16	150903	47.423377946275	4084
16	151162	47.473377946275	4089
16	151290	47.523377946275	4094
16	151549	47.573377946275	4099
16	151677	47.623377946275	4104
16	151936	47.673377946275	4109
16	152064	47.723377946275	4114
16	152307	47.773377946275	4119
16	152435	47.823377946275	4124
16	152672	47.873377946275	4129
16	152800	47.923377946275	4134
16	153048	47.973377946275	4139
16	153176	48.023377946275	4144
16	153435	48.073377946275	4149
16	153563	48.123377946275	4154
16	153806	48.173377946275	4159
16	153934	48.223377946275	4164
16	154177	48.273377946275	4169
16	154305	48.323377946275	4174
16	154564	48.373377946275	4179
16	154692	48.423377946275	4184
16	154935	48.473377946275	4189
16	155063	48.523377946275	4194
16	155322	48.573377946275	4199
16	155450	48.623377946275	4204
16	155698	48.673377946275	4209
16	155826	48.723377946275	4214
16	156063	48.773377946275	4219
16	156191	48.823377946275	4224
16	156450	48.873377946275	4229
16	156578	48.923377946275	4234
16	156837	48.973377946275	4239
16	156965	49.023377946275	4244
16	157224	49.073377946275	4249
16	157352	49.123377946275	4254
16	157611	49.173377946275	4259
16	157739	49.223377946275	4264
16	157998	49.273377946275	4269
16	158126	49.323377946275	4274
16	158385	49.373377946275	4279
16	158513	49.423377946275	4284
16	158788	49.473377946275	4289
16	158916	49.523377946275	4294
16	159175	49.573377946275	4299
16	159303	49.623377946275	4304
16	159578	49.673377946275	4309
16	159706	49.723377946275	4314
16	159965	49.773377946275	4319
16	160093	49.823377946275	4324
16	160336	49.873377946275	4329
16	160464	49.923377946275	4334
16	160739	49.973377946275	4339
16	160867	50.023377946275	4344
16	161142	50.073377946275	4349
16	161270	50.123377946275	4354
16	161513	50.173377946275	4359
16	161641	50.223377946275	4364
16	161884	50.273377946275	4369
16	162012	50.323377946275	4374
16	162260	50.373377946275	4379
16	162388	50.423377946275	4384
16	162631	50.473377946275	4389
16	162759	50.523377946275	4394
16	163007	50.573377946275	4399
16	163135	50.623377946275	4404
16	163383	50.673377946275	4409
16	163511	50.723377946275	4414
16	163770	50.773377946275	4419
16	163898	50.823377946275	4424
16	164141	50.873377946275	4429
16	164269	50.923377946275	4434
16	164544	50.973377946275	4439
16	164672	51.023377946275	4444
16	164947	51.073377946275	4449
16	165075	51.123377946275	4454
16	165334	51.173377946275	4459
16	165462	51.223377946275	4464
16	165721	51.273377946275	4469
16	165849	51.323377946275	4474
16	166108	51.373377946275	4479
16	166236	51.423377946275	4484
16	166484	51.473377946275	4489
16	166612	51.523377946275	4494
16	166860	51.573377946275	4499
16	166988	51.623377946275	4504
16	167247	51.673377946275	4509
16	167375	51.723377946275	4514
16	167623	51.773377946275	4519
16	167751	51.823377946275	4524
16	167999	51.873377946275	4529
16	168127	51.923377946275	4534
16	168386	51.973377946275	4539
16	168514	52.023377946275	4544
16	168757	52.073377946275	4549
16	168885	52.123377946275	4554
16	169133	52.173377946275	4559
16	169261	52.223377946275	4564
16	169520	52.273377946275	4569
16	169648	52.323377946275	4574
16	169923	52.373377946275	4579
16	170051	52.423377946275	4584
16	170310	52.473377946275	4589
16	170438	52.523377946275	4594
16	170697	52.573377946275	4599
16	170825	52.623377946275	4604
16	171084	52.673377946275	4609
16	171212	52.723377946275	4614
16	171471	52.773377946275	4619
16	171599	52.823377946275	4624
16	171858	52.873377946275	4629
16	171986	52.923377946275	4634
16	172223	52.973377946275	4639
16	172351	53.023377946275	4644
16	172610	53.073377946275	4649
16	172738	53.123377946275	4654
16	172981	53.173377946275	4659
16	173109	53.223377946275	4664
16	173357	53.273377946275	4669
16	173485	53.323377946275	4674
16	173744	53.373377946275	4679
16	173872	53.423377946275	4684
16	174120	53.473377946275	4689
16	174248	53.523377946275	4694
16	174507	53.573377946275	4699
16	174635	53.623377946275	4704
16	174883	53.673377946275	4709
16	175011	53.723377946275	4714
16	175270	53.773377946275	4719
16	175398	53.823377946275	4724
16	175657	53.873377946275	4729
16	175785	53.923377946275	4734
16	176028	53.973377946275	4739
16	176156	54.023377946275	4744
16	176404	54.073377946275	4749
16	176532	54.123377946275	4754
16	176791	54.173377946275	4759
16	176919	54.223377946275	4764
16	177178	54.273377946275	4769
16	177306	54.323377946275	4774
16	177554	54.373377946275	4779
16	177682	54.423377946275	4784
16	177941	54.473377946275	4789
16	178069	54.523377946275	4794
16	178317	54.573377946275	4799
16	178445	54.623377946275	4804
16	178704	54.673377946275	4809
16	178832	54.723377946275	4814
16	179091	54.773377946275	4819
16	179219	54.823377946275	4824
16	179478	54.873377946275	4829
16	179606	54.923377946275	4834
16	179865	54.973377946275	4839
16	179993	55.023377946275	4844
16	180241	55.073377946275	4849
16	180369	55.123377946275	4854
16	180628	55.173377946275	4859
16	180756	55.223377946275	4864
16	181015	55.273377946275	4869
16	181143	55.323377946275	4874
16	181402	55.373377946275	4879
16	181530	55.423377946275	4884
16	181778	55.473377946275	4889
16	181906	55.523377946275	4894
16	182165	55.573377946275	4899
16	182293	55.623377946275	4904
16	182552	55.673377946275	4909
16	182680	55.723377946275	4914
16	182939	55.773377946275	4919
16	183067	55.823377946275	4924
16	183315	55.873377946275	4929
16	183443	55.923377946275	4934
16	183691	55.973377946275	4939
16	183819	56.023377946275	4944
16	184094	56.073377946275	4949
16	184222	56.123377946275	4954
16	184481	56.173377946275	4959
16	184609	56.223377946275	4964
16	184868	56.273377946275	4969
16	184996	56.323377946275	4974
16	185244	56.373377946275	4979
16	185372	56.423377946275	4984
16	185615	56.473377946275	4989
16	185743	56.523377946275	4994
16	185986	56.573377946275	4999
16	186114	56.623377946275	5004
16	186389	56.673377946275	5009
16	186517	56.723377946275	5014
16	186760	56.773377946275	5019
16	186888	56.823377946275	5024
16	187136	56.873377946275	5029
16	187264	56.923377946275	5034
16	187523	56.973377946275	5039
16	187651	57.023377946275	5044
16	187910	57.073377946275	5049
16	188038	57.123377946275	5054
16	188297	57.173377946275	5059
16	188425	57.223377946275	5064
16	188684	57.273377946275	5069
16	188812	57.323377946275	5074
16	189071	57.373377946275	5079
16	189199	57.423377946275	5084
16	189458	57.473377946275	5089
16	189586	57.523377946275	5094
16	189845	57.573377946275	5099
16	189973	57.623377946275	5104
16	190221	57.673377946275	5109
16	190349	57.723377946275	5114
16	190608	57.773377946275	5119
16	190736	57.823377946275	5124
16	190995	57.873377946275	5129
16	191123	57.923377946275	5134
16	191398	57.973377946275	5139
16	191526	58.023377946275	5144
16	191785	58.073377946275	5149
16	191913	58.123377946275	5154
16	192172	58.173377946275	5159
16	192300	58.223377946275	5164
16	192559	58.273377946275	5169
16	192687	58.323377946275	5174
16	192946	58.373377946275	5179
16	193074	58.423377946275	5184
16	193333	58.473377946275	5189
16	193461	58.523377946275	5194
16	193720	58.573377946275	5199
16	193848	58.623377946275	5204
16	194107	58.673377946275	5209
16	194235	58.723377946275	5214
16	194494	58.773377946275	5219
16	194622	58.823377946275	5224
16	194865	58.873377946275	5229
16	194993	58.923377946275	5234
16	195252	58.973377946275	5239
16	195380	59.023377946275	5244
16	195628	59.073377946275	5249
16	195756	59.123377946275	5254
16	196004	59.173377946275	5259
16	196132	59.223377946275	5264
16	196391	59.273377946275	5269
16	196519	59.323377946275	5274
16	196767	59.373377946275	5279
16	196895	59.423377946275	5284
16	197138	59.473377946275	5289
16	197266	59.523377946275	5294
16	197525	59.573377946275	5299
16	197653	59.623377946275	5304
16	197912	59.673377946275	5309
16	198040	59.723377946275	5314
16	198288	59.773377946275	5319
16	198416	59.823377946275	5324
16	198675	59.873377946275	5329
16	198803	59.923377946275	5334
16	199046	59.973377946275	5339
16	199174	60.023377946275	5344
16	199417	60.073377946275	5349
16	199545	60.123377946275	5354
[...]
14	140869	44.800279767208	0.002
14	140885	44.850279767208	0.001
14	141256	44.900279767208	0.002
14	141272	44.950279767208	0.001
14	141659	45.000279767208	0.002
14	141675	45.050279767208	0.001
14	142030	45.100279767208	0.002
14	142046	45.150279767208	0.001
14	142433	45.200279767208	0.002
14	142449	45.250279767208	0.001
14	142820	45.300279767208	0.002
14	142836	45.350279767208	0.001
14	143196	45.400279767208	0.002
14	143212	45.450279767208	0.001
14	143572	45.500279767208	0.002
14	143588	45.550279767208	0.001
14	143948	45.600279767208	0.002
14	143964	45.650279767208	0.001
14	144335	45.700279767208	0.002
14	144351	45.750279767208	0.001
14	144738	45.800279767208	0.002
14	144754	45.850279767208	0.001
14	145125	45.900279767208	0.002
14	145141	45.950279767208	0.001
14	145512	46.000279767208	0.002
14	145528	46.050279767208	0.001
14	145883	46.100279767208	0.002
14	145899	46.150279767208	0.001
14	146270	46.200279767208	0.002
14	146286	46.250279767208	0.001
14	146646	46.300279767208	0.002
14	146662	46.350279767208	0.001
14	147049	46.400279767208	0.002
14	147065	46.450279767208	0.001
14	147436	46.500279767208	0.002
14	147452	46.550279767208	0.001
14	147823	46.600279767208	0.002
14	147839	46.650279767208	0.001
14	148210	46.700279767208	0.002
14	148226	46.750279767208	0.001
14	148613	46.800279767208	0.002
14	148629	46.850279767208	0.001
14	149000	46.900279767208	0.002
14	149016	46.950279767208	0.001
14	149376	47.000279767208	0.002
14	149392	47.050279767208	0.001
14	149747	47.100279767208	0.002
14	149763	47.150279767208	0.001
14	150134	47.200279767208	0.002
14	150150	47.250279767208	0.001
14	150510	47.300279767208	0.002
14	150526	47.350279767208	0.001
14	150897	47.400279767208	0.002
14	150913	47.450279767208	0.001
14	151284	47.500279767208	0.002
14	151300	47.550279767208	0.001
14	151671	47.600279767208	0.002
14	151687	47.650279767208	0.001
14	152058	47.700279767208	0.002
14	152074	47.750279767208	0.001
14	152429	47.800279767208	0.002
14	152445	47.850279767208	0.001
14	152794	47.900279767208	0.002
14	152810	47.950279767208	0.001
14	153170	48.000279767208	0.002
14	153186	48.050279767208	0.001
14	153557	48.100279767208	0.002
14	153573	48.150279767208	0.001
14	153928	48.200279767208	0.002
14	153944	48.250279767208	0.001
14	154299	48.300279767208	0.002
14	154315	48.350279767208	0.001
14	154686	48.400279767208	0.002
14	154702	48.450279767208	0.001
14	155057	48.500279767208	0.002
14	155073	48.550279767208	0.001
14	155444	48.600279767208	0.002
14	155460	48.650279767208	0.001
14	155820	48.700279767208	0.002
14	155836	48.750279767208	0.001
14	156185	48.800279767208	0.002
14	156201	48.850279767208	0.001
14	156572	48.900279767208	0.002
14	156588	48.950279767208	0.001
14	156959	49.000279767208	0.002
14	156975	49.050279767208	0.001
14	157346	49.100279767208	0.002
14	157362	49.150279767208	0.001
14	157733	49.200279767208	0.002
14	157749	49.250279767208	0.001
14	158120	49.300279767208	0.002
14	158136	49.350279767208	0.001
14	158507	49.400279767208	0.002
14	158523	49.450279767208	0.001
14	158910	49.500279767208	0.002
14	158926	49.550279767208	0.001
14	159297	49.600279767208	0.002
14	159313	49.650279767208	0.001
14	159700	49.700279767208	0.002
14	159716	49.750279767208	0.001
14	160087	49.800279767208	0.002
14	160103	49.850279767208	0.001
14	160458	49.900279767208	0.002
14	160474	49.950279767208	0.001
14	160861	50.000279767208	0.002
14	160877	50.050279767208	0.001
14	161264	50.100279767208	0.002
14	161280	50.150279767208	0.001
14	161635	50.200279767208	0.002
14	161651	50.250279767208	0.001
14	162006	50.300279767208	0.002
14	162022	50.350279767208	0.001
14	162382	50.400279767208	0.002
14	162398	50.450279767208	0.001
14	162753	50.500279767208	0.002
14	162769	50.550279767208	0.001
14	163129	50.600279767208	0.002
14	163145	50.650279767208	0.001
14	163505	50.700279767208	0.002
14	163521	50.750279767208	0.001
14	163892	50.800279767208	0.002
14	163908	50.850279767208	0.001
14	164263	50.900279767208	0.002
14	164279	50.950279767208	0.001
14	164666	51.000279767208	0.002
14	164682	51.050279767208	0.001
14	165069	51.100279767208	0.002
14	165085	51.150279767208	0.001
14	165456	51.200279767208	0.002
14	165472	51.250279767208	0.001
14	165843	51.300279767208	0.002
14	165859	51.350279767208	0.001
14	166230	51.400279767208	0.002
14	166246	51.450279767208	0.001
14	166606	51.500279767208	0.002
14	166622	51.550279767208	0.001
14	166982	51.600279767208	0.002
14	166998	51.650279767208	0.001
14	167369	51.700279767208	0.002
14	167385	51.750279767208	0.001
14	167745	51.800279767208	0.002
14	167761	51.850279767208	0.001
14	168121	51.900279767208	0.002
14	168137	51.950279767208	0.001
14	168508	52.000279767208	0.002
14	168524	52.050279767208	0.001
14	168879	52.100279767208	0.002
14	168895	52.150279767208	0.001
14	169255	52.200279767208	0.002
14	169271	52.250279767208	0.001
14	169642	52.300279767208	0.002
14	169658	52.350279767208	0.001
14	170045	52.400279767208	0.002
14	170061	52.450279767208	0.001
14	170432	52.500279767208	0.002
14	170448	52.550279767208	0.001
14	170819	52.600279767208	0.002
14	170835	52.650279767208	0.001
14	171206	52.700279767208	0.002
14	171222	52.750279767208	0.001
14	171593	52.800279767208	0.002
14	171609	52.850279767208	0.001
14	171980	52.900279767208	0.002
14	171996	52.950279767208	0.001
14	172345	53.000279767208	0.002
14	172361	53.050279767208	0.001
14	172732	53.100279767208	0.002
14	172748	53.150279767208	0.001
14	173103	53.200279767208	0.002
14	173119	53.250279767208	0.001
14	173479	53.300279767208	0.002
14	173495	53.350279767208	0.001
14	173866	53.400279767208	0.002
14	173882	53.450279767208	0.001
14	174242	53.500279767208	0.002
14	174258	53.550279767208	0.001
14	174629	53.600279767208	0.002
14	174645	53.650279767208	0.001
14	175005	53.700279767208	0.002
14	175021	53.750279767208	0.001
14	175392	53.800279767208	0.002
14	175408	53.850279767208	0.001
14	175779	53.900279767208	0.002
14	175795	53.950279767208	0.001
14	176150	54.000279767208	0.002
14	176166	54.050279767208	0.001
14	176526	54.100279767208	0.002
14	176542	54.150279767208	0.001
14	176913	54.200279767208	0.002
14	176929	54.250279767208	0.001
14	177300	54.300279767208	0.002
14	177316	54.350279767208	0.001
14	177676	54.400279767208	0.002
14	177692	54.450279767208	0.001
14	178063	54.500279767208	0.002
14	178079	54.550279767208	0.001
14	178439	54.600279767208	0.002
14	178455	54.650279767208	0.001
14	178826	54.700279767208	0.002
14	178842	54.750279767208	0.001
14	179213	54.800279767208	0.002
14	179229	54.850279767208	0.001
14	179600	54.900279767208	0.002
14	179616	54.950279767208	0.001
14	179987	55.000279767208	0.002
14	180003	55.050279767208	0.001
14	180363	55.100279767208	0.002
14	180379	55.150279767208	0.001
14	180750	55.200279767208	0.002
14	180766	55.250279767208	0.001
14	181137	55.300279767208	0.002
14	181153	55.350279767208	0.001
14	181524	55.400279767208	0.002
14	181540	55.450279767208	0.001
14	181900	55.500279767208	0.002
14	181916	55.550279767208	0.001
14	182287	55.600279767208	0.002
14	182303	55.650279767208	0.001
14	182674	55.700279767208	0.002
14	182690	55.750279767208	0.001
14	183061	55.800279767208	0.002
14	183077	55.850279767208	0.001
14	183437	55.900279767208	0.002
14	183453	55.950279767208	0.001
14	183813	56.000279767208	0.002
14	183829	56.050279767208	0.001
14	184216	56.100279767208	0.002
14	184232	56.150279767208	0.001
14	184603	56.200279767208	0.002
14	184619	56.250279767208	0.001
14	184990	56.300279767208	0.002
14	185006	56.350279767208	0.001
14	185366	56.400279767208	0.002
14	185382	56.450279767208	0.001
14	185737	56.500279767208	0.002
14	185753	56.550279767208	0.001
14	186108	56.600279767208	0.002
14	186124	56.650279767208	0.001
14	186511	56.700279767208	0.002
14	186527	56.750279767208	0.001
14	186882	56.800279767208	0.002
14	186898	56.850279767208	0.001
14	187258	56.900279767208	0.002
14	187274	56.950279767208	0.001
14	187645	57.000279767208	0.002
14	187661	57.050279767208	0.001
14	188032	57.100279767208	0.002
14	188048	57.150279767208	0.001
14	188419	57.200279767208	0.002
14	188435	57.250279767208	0.001
14	188806	57.300279767208	0.002
14	188822	57.350279767208	0.001
14	189193	57.400279767208	0.002
14	189209	57.450279767208	0.001
14	189580	57.500279767208	0.002
14	189596	57.550279767208	0.001
14	189967	57.600279767208	0.002
14	189983	57.650279767208	0.001
14	190343	57.700279767208	0.002
14	190359	57.750279767208	0.001
14	190730	57.800279767208	0.002
14	190746	57.850279767208	0.001
14	191117	57.900279767208	0.002
14	191133	57.950279767208	0.001
14	191520	58.000279767208	0.002
14	191536	58.050279767208	0.001
14	191907	58.100279767208	0.002
14	191923	58.150279767208	0.001
14	192294	58.200279767208	0.002
14	192310	58.250279767208	0.001
14	192681	58.300279767208	0.002
14	192697	58.350279767208	0.001
14	193068	58.400279767208	0.002
14	193084	58.450279767208	0.001
14	193455	58.500279767208	0.002
14	193471	58.550279767208	0.001
14	193842	58.600279767208	0.002
14	193858	58.650279767208	0.001
14	194229	58.700279767208	0.002
14	194245	58.750279767208	0.001
14	194616	58.800279767208	0.002
14	194632	58.850279767208	0.001
14	194987	58.900279767208	0.002
14	195003	58.950279767208	0.001
14	195374	59.000279767208	0.002
14	195390	59.050279767208	0.001
14	195750	59.100279767208	0.002
14	195766	59.150279767208	0.001
14	196126	59.200279767208	0.002
14	196142	59.250279767208	0.001
14	196513	59.300279767208	0.002
14	196529	59.350279767208	0.001
14	196889	59.400279767208	0.002
14	196905	59.450279767208	0.001
14	197260	59.500279767208	0.002
14	197276	59.550279767208	0.001
14	197647	59.600279767208	0.002
14	197663	59.650279767208	0.001
14	198034	59.700279767208	0.002
14	198050	59.750279767208	0.001
14	198410	59.800279767208	0.002
14	198426	59.850279767208	0.001
14	198797	59.900279767208	0.002
14	198813	59.950279767208	0.001
14	199168	60.000279767208	0.002
14	199184	60.050279767208	0.001
14	199539	60.100279767208	0.002
14	199555	60.150279767208	0.001
14	199926	60.200279767208	0.002
14	199942	60.250279767208	0.001
14	200313	60.300279767208	0.002
14	200329	60.350279767208	0.001
14	200700	60.400279767208	0.002
14	200716	60.450279767208	0.001
14	201076	60.500279767208	0.002
14	201092	60.550279767208	0.001
14	201463	60.600279767208	0.002
14	201479	60.650279767208	0.001
14	201866	60.700279767208	0.002
14	201882	60.750279767208	0.001
14	202253	60.800279767208	0.002
14	202269	60.850279767208	0.001
14	202629	60.900279767208	0.002
14	202645	60.950279767208	0.001
14	203000	61.000279767208	0.002
14	203016	61.050279767208	0.001
14	203387	61.100279767208	0.002
14	203403	61.150279767208	0.001
14	203774	61.200279767208	0.002
14	203790	61.250279767208	0.001
14	204145	61.300279767208	0.002
14	204161	61.350279767208	0.001
14	204532	61.400279767208	0.002
14	204548	61.450279767208	0.001
14	204908	61.500279767208	0.002
14	204924	61.550279767208	0.001
14	205294	61.600279767208	0.002
14	205307	61.650279767208	0.001
14	205569	61.700279767208	0.002
14	205582	61.750279767208	0.001
14	205831	61.800279767208	0.002
14	205844	61.850279767208	0.001
14	206093	61.900279767208	0.002
14	206106	61.950279767208	0.001
14	206355	62.000279767208	0.002
14	206368	62.050279767208	0.001
14	206630	62.100279767208	0.002
14	206643	62.150279767208	0.001
14	206892	62.200279767208	0.002
14	206905	62.250279767208	0.001
14	207167	62.300279767208	0.002
14	207180	62.350279767208	0.001
14	207429	62.400279767208	0.002
14	207442	62.450279767208	0.001
14	207704	62.500279767208	0.002
14	207717	62.550279767208	0.001
14	207979	62.600279767208	0.002
14	207992	62.650279767208	0.001
14	208241	62.700279767208	0.002
14	208254	62.750279767208	0.001
14	208503	62.800279767208	0.002
14	208516	62.850279767208	0.001
14	208778	62.900279767208	0.002
14	208791	62.950279767208	0.001
14	209040	63.000279767208	0.002
14	209053	63.050279767208	0.001
14	209315	63.100279767208	0.002
14	209328	63.150279767208	0.001
14	209577	63.200279767208	0.002
14	209590	63.250279767208	0.001
14	209839	63.300279767208	0.002
14	209852	63.350279767208	0.001
14	210114	63.400279767208	0.002
14	210127	63.450279767208	0.001
14	210376	63.500279767208	0.002
14	210389	63.550279767208	0.001
14	210651	63.600279767208	0.002
14	210664	63.650279767208	0.001
14	210926	63.700279767208	0.002
14	210939	63.750279767208	0.001
14	211188	63.800279767208	0.002
14	211201	63.850279767208	0.001
14	211463	63.900279767208	0.002
14	211476	63.950279767208	0.001
14	211738	64.000279767208	0.002
14	211751	64.050279767208	0.001
14	212013	64.100279767208	0.002
14	212026	64.150279767208	0.001
14	212266	64.200279767208	0.002
14	212279	64.250279767208	0.001
14	212528	64.300279767208	0.002
14	212541	64.350279767208	0.001
14	212790	64.400279767208	0.002
14	212803	64.450279767208	0.001
14	213052	64.500279767208	0.002
14	213065	64.550279767208	0.001
14	213327	64.600279767208	0.002
14	213337	64.650279767208	0.001
14	213498	64.700279767208	0.002
14	213508	64.750279767208	0.001
14	213669	64.800279767208	0.002
14	213679	64.850279767208	0.001
14	213840	64.900279767208	0.002
14	213850	64.950279767208	0.001
14	214011	65.000279767208	0.002
14	214021	65.050279767208	0.001
14	214172	65.100279767208	0.002
14	214182	65.150279767208	0.001
14	214343	65.200279767208	0.002
14	214353	65.250279767208	0.001
14	214514	65.300279767208	0.002
14	214524	65.350279767208	0.001
14	214685	65.400279767208	0.002
14	214695	65.450279767208	0.001
14	214856	65.500279767208	0.002
14	214866	65.550279767208	0.001
14	215027	65.600279767208	0.002
14	215037	65.650279767208	0.001
14	215198	65.700279767208	0.002
14	215208	65.750279767208	0.001
14	215369	65.800279767208	0.002
14	215379	65.850279767208	0.001
14	215530	65.900279767208	0.002
14	215540	65.950279767208	0.001
14	215691	66.000279767208	0.002
14	215701	66.050279767208	0.001
14	215852	66.100279767208	0.002
14	215862	66.150279767208	0.001
14	216013	66.200279767208	0.002
14	216023	66.250279767208	0.001
14	216184	66.300279767208	0.002
14	216194	66.350279767208	0.001
14	216355	66.400279767208	0.002
14	216365	66.450279767208	0.001
14	216526	66.500279767208	0.002
14	216536	66.550279767208	0.001
14	216697	66.600279767208	0.002
14	216707	66.650279767208	0.001
14	216868	66.700279767208	0.002
14	216878	66.750279767208	0.001
14	217039	66.800279767208	0.002
14	217049	66.850279767208	0.001
14	217210	66.900279767208	0.002
14	217220	66.950279767208	0.001
14	217371	67.000279767208	0.002
14	217381	67.050279767208	0.001
14	217542	67.100279767208	0.002
14	217552	67.150279767208	0.001
14	217713	67.200279767208	0.002
14	217723	67.250279767208	0.001
14	217884	67.300279767208	0.002
14	217894	67.350279767208	0.001
14	218055	67.400279767208	0.002
14	218065	67.450279767208	0.001
14	218226	67.500279767208	0.002
14	218236	67.550279767208	0.001
14	218396	67.600279767208	0.002
14	218403	67.650279767208	0.001
14	218487	67.700279767208	0.002
14	218494	67.750279767208	0.001
14	218578	67.800279767208	0.002
14	218585	67.850279767208	0.001
14	218669	67.900279767208	0.002
14	218676	67.950279767208	0.001
14	218760	68.000279767208	0.002
14	218767	68.050279767208	0.001
14	218851	68.100279767208	0.002
14	218858	68.150279767208	0.001
14	218942	68.200279767208	0.002
14	218949	68.250279767208	0.001
14	219033	68.300279767208	0.002
14	219040	68.350279767208	0.001
14	219124	68.400279767208	0.002
14	219131	68.450279767208	0.001
14	219215	68.500279767208	0.002
14	219222	68.550279767208	0.001
14	219306	68.600279767208	0.002
14	219313	68.650279767208	0.001
14	219397	68.700279767208	0.002
14	219404	68.750279767208	0.001
14	219488	68.800279767208	0.002
14	219495	68.850279767208	0.001
14	219579	68.900279767208	0.002
14	219586	68.950279767208	0.001
14	219670	69.000279767208	0.002
14	219677	69.050279767208	0.001
14	219761	69.100279767208	0.002
14	219768	69.150279767208	0.001
14	219852	69.200279767208	0.002
14	219859	69.250279767208	0.001
14	219943	69.300279767208	0.002
14	219950	69.350279767208	0.001
14	220034	69.400279767208	0.002
14	220041	69.450279767208	0.001
14	220125	69.500279767208	0.002
14	220132	69.550279767208	0.001
14	220216	69.600279767208	0.002
14	220223	69.650279767208	0.001
14	220307	69.700279767208	0.002
14	220314	69.750279767208	0.001
14	220398	69.800279767208	0.002
14	220405	69.850279767208	0.001
14	220489	69.900279767208	0.002
14	220496	69.950279767208	0.001
14	220580	70.000279767208	0.002
14	220587	70.050279767208	0.001
14	220671	70.100279767208	0.002
14	220678	70.150279767208	0.001
14	220762	70.200279767208	0.002
14	220769	70.250279767208	0.001
14	220853	70.300279767208	0.002
14	220860	70.350279767208	0.001
14	220944	70.400279767208	0.002
14	220951	70.450279767208	0.001
14	221034	70.500279767208	0.002
14	221038	70.550279767208	0.001
14	221069	70.600279767208	0.002
14	221073	70.650279767208	0.001
14	221104	70.700279767208	0.002
14	221108	70.750279767208	0.001
14	221139	70.800279767208	0.002
14	221143	70.850279767208	0.001
14	221174	70.900279767208	0.002
14	221178	70.950279767208	0.001
14	221209	71.000279767208	0.002
14	221213	71.050279767208	0.001
14	221244	71.100279767208	0.002
14	221248	71.150279767208	0.001
14	221279	71.200279767208	0.002
14	221283	71.250279767208	0.001
14	221314	71.300279767208	0.002
14	221318	71.350279767208	0.001
14	221349	71.400279767208	0.002
14	221353	71.450279767208	0.001
14	221384	71.500279767208	0.002
14	221388	71.550279767208	0.001
14	221419	71.600279767208	0.002
14	221423	71.650279767208	0.001
14	221454	71.700279767208	0.002
14	221458	71.750279767208	0.001
14	221489	71.800279767208	0.002
14	221493	71.850279767208	0.001
14	221524	71.900279767208	0.002
14	221528	71.950279767208	0.001
14	221559	72.000279767208	0.002
14	221563	72.050279767208	0.001
14	221594	72.100279767208	0.002
14	221598	72.150279767208	0.001
14	221629	72.200279767208	0.002
14	221633	72.250279767208	0.001
14	221664	72.300279767208	0.002
14	221668	72.350279767208	0.001
14	221699	72.400279767208	0.002
14	221703	72.450279767208	0.001
14	221734	72.500279767208	0.002
14	221738	72.550279767208	0.001
14	221769	72.600279767208	0.002
14	221773	72.650279767208	0.001
14	221804	72.700279767208	0.002
14	221808	72.750279767208	0.001
14	221839	72.800279767208	0.002
14	221843	72.850279767208	0.001
14	221874	72.900279767208	0.002
14	221878	72.950279767208	0.001
14	221909	73.000279767208	0.002
14	221913	73.050279767208	0.001
14	221944	73.100279767208	0.002
14	221948	73.150279767208	0.001
14	221979	73.200279767208	0.002
14	221983	73.250279767208	0.001
14	222014	73.300279767208	0.002
14	222018	73.350279767208	0.001
14	222049	73.400279767208	0.002
14	222053	73.450279767208	0.001
14	222084	73.500279767208	0.002
14	222088	73.550279767208	0.001
14	222118	73.600279767208	0.002
14	222119	73.650279767208	0.001
14	222120	73.700279767208	0.002
14	222121	73.750279767208	0.001
14	222122	73.800279767208	0.002
14	222123	73.850279767208	0.001
14	222124	73.900279767208	0.002
14	222125	73.950279767208	0.001
14	222126	74.000279767208	0.002
14	222127	74.050279767208	0.001
14	222128	74.100279767208	0.002
14	222129	74.150279767208	0.001
14	222130	74.200279767208	0.002
14	222131	74.250279767208	0.001
14	222132	74.300279767208	0.002
14	222133	74.350279767208	0.001
14	222134	74.400279767208	0.002
14	222135	74.450279767208	0.001
14	222136	74.500279767208	0.002
14	222137	74.550279767208	0.001
14	222138	74.600279767208	0.002
14	222139	74.650279767208	0.001
14	222140	74.700279767208	0.002
14	222141	74.750279767208	0.001
14	222142	74.800279767208	0.002
14	222143	74.850279767208	0.001
14	222144	74.900279767208	0.002
14	222145	74.950279767208	0.001
14	222146	75.000279767208	0.002
14	222147	75.050279767208	0.001
14	222148	75.100279767208	0.002
14	222149	75.150279767208	0.001
14	222150	75.200279767208	0.002
14	222151	75.250279767208	0.001
14	222152	75.300279767208	0.002
14	222153	75.350279767208	0.001
14	222154	75.400279767208	0.002
14	222155	75.450279767208	0.001
14	222156	75.500279767208	0.002
14	222157	75.550279767208	0.001
14	222158	75.600279767208	0.002
14	222159	75.650279767208	0.001
14	222160	75.700279767208	0.002
14	222161	75.750279767208	0.001
14	222162	75.800279767208	0.002
14	222163	75.850279767208	0.001
14	222164	75.900279767208	0.002
14	222165	75.950279767208	0.001
