version 2
run VoIP-30ms_280B-9-20160923-14:15:06-14699
attr configname VoIP-30ms_280B
attr datetime 20160923-14:15:06
attr experiment VoIP-30ms_280B
attr inifile omnetpp.ini
attr iterationvars ""
attr iterationvars2 $repetition=9
attr measurement ""
attr network SymScenerio
attr processid 14699
attr repetition 9
attr replication #9
attr resultdir results
attr runnumber 9
attr seedset 9
param **.coreDebug false
param **.debug false
param *.**.nic.mac1609_4.bitrate 18Mbps
param *.**.nic.mac1609_4.txPower 20mW
param *.**.nic.mac1609_4.useServiceChannel true
param *.**.nic.phy80211p.analogueModels "xmldoc(\"config.xml\")"
param *.**.nic.phy80211p.decider "xmldoc(\"config.xml\")"
param *.**.nic.phy80211p.sensitivity -89dBm
param *.**.nic.phy80211p.thermalNoise -110dBm
param *.**.nic.phy80211p.usePropagationDelay true
param *.**.nic.phy80211p.useThermalNoise true
param *.annotations.draw false
param *.connectionManager.alpha 2.0
param *.connectionManager.carrierFrequency "5.890e9 Hz"
param *.connectionManager.pMax 20mW
param *.connectionManager.sat -89dBm
param *.connectionManager.sendDirect true
param *.manager.autoShutdown true
param *.manager.host "\"localhost\""
param *.manager.launchConfig "xmldoc(\"map.launchd.xml\")"
param *.manager.margin 25
param *.manager.moduleDisplayString "\"\""
param *.manager.moduleName "\"node\""
param *.manager.moduleType "\"symulacja.veins.nodes.Car\""
param *.manager.port 9999
param *.manager.updateInterval 0.1s
param *.node[*].appl.beaconInterval 1s
param *.node[*].appl.beaconPriority 3
param *.node[*].appl.dataOnSch false
param *.node[*].appl.dataPriority 2
param *.node[*].appl.debug false
param *.node[*].appl.maxOffset 0.005s
param *.node[*].appl.sendBeacons false
param *.node[*].appl.sendData true
param *.node[*].appl.sendVoIP true
param *.node[*].appl.voipInterval 0.030s
param *.node[*].appl.voipLengthBits 2240bits
param *.node[*].appl.voipOnSch true
param *.node[*].appl.voipPriority 3
param *.node[*].applType "\"Sym11p\""
param *.node[*].veinsmobility.x 0
param *.node[*].veinsmobility.y 0
param *.node[*].veinsmobility.z 1.895
param *.node[*].veinsmobilityType "\"symulacja.veins.modules.mobility.traci.TraCIMobility\""
param *.playgroundSizeX 9000m
param *.playgroundSizeY 9000m
param *.playgroundSizeZ 50m
param *.rsu[*].appl.beaconInterval 1s
param *.rsu[*].appl.beaconPriority 3
param *.rsu[*].appl.dataOnSch false
param *.rsu[*].appl.dataPriority 2
param *.rsu[*].appl.debug false
param *.rsu[*].appl.headerLength "256 bit"
param *.rsu[*].appl.maxOffset 0.005s
param *.rsu[*].appl.sendBeacons false
param *.rsu[*].appl.sendData false
param *.rsu[*].appl.sendVoIP false
param *.rsu[*].applType "\"SymRSU11p\""
param *.rsu[0].mobility.x 2160
param *.rsu[0].mobility.y 3100
param *.rsu[0].mobility.z 3
param *.world.use2D false
param *.world.useTorus false

vector 14  SymScenerio.rsu[0].nic.mac1609_4  "Interwały kanałów"  ETV
vector 23  SymScenerio.node[0].veinsmobility  posx  ETV
vector 24  SymScenerio.node[0].veinsmobility  posy  ETV
vector 22  SymScenerio.node[0].nic.mac1609_4  "Interwały kanałów"  ETV
vector 25  SymScenerio.node[0].veinsmobility  speed  ETV
vector 15  SymScenerio.node[0].appl  "TX Packets"  ETV
vector 16  SymScenerio.node[0].appl  "TX Total"  ETV
vector 17  SymScenerio.node[0].appl  Pakietyzacja  ETV
vector 5  SymScenerio.rsu[0].appl  nodeALL:vector  ETV
attr source  nodeALL
attr title  "Opoznienia ALL, vector"
vector 9  SymScenerio.rsu[0].appl  "RX Packet"  ETV
vector 0  SymScenerio.rsu[0].appl  node0:vector  ETV
attr source  node0
attr title  "Opoznienia node0, vector"
vector 26  SymScenerio.node[0].veinsmobility  acceleration  ETV
vector 27  SymScenerio.node[0].veinsmobility  co2emission  ETV
vector 36  SymScenerio.node[1].veinsmobility  posx  ETV
vector 37  SymScenerio.node[1].veinsmobility  posy  ETV
vector 35  SymScenerio.node[1].nic.mac1609_4  "Interwały kanałów"  ETV
vector 38  SymScenerio.node[1].veinsmobility  speed  ETV
vector 39  SymScenerio.node[1].veinsmobility  acceleration  ETV
vector 40  SymScenerio.node[1].veinsmobility  co2emission  ETV
vector 28  SymScenerio.node[1].appl  "TX Packets"  ETV
vector 29  SymScenerio.node[1].appl  "TX Total"  ETV
vector 30  SymScenerio.node[1].appl  Pakietyzacja  ETV
vector 1  SymScenerio.rsu[0].appl  node1:vector  ETV
attr source  node1
attr title  "Opoznienia node1, vector"
vector 49  SymScenerio.node[2].veinsmobility  posx  ETV
vector 50  SymScenerio.node[2].veinsmobility  posy  ETV
vector 48  SymScenerio.node[2].nic.mac1609_4  "Interwały kanałów"  ETV
vector 51  SymScenerio.node[2].veinsmobility  speed  ETV
vector 52  SymScenerio.node[2].veinsmobility  acceleration  ETV
vector 53  SymScenerio.node[2].veinsmobility  co2emission  ETV
vector 41  SymScenerio.node[2].appl  "TX Packets"  ETV
vector 42  SymScenerio.node[2].appl  "TX Total"  ETV
vector 43  SymScenerio.node[2].appl  Pakietyzacja  ETV
vector 2  SymScenerio.rsu[0].appl  node2:vector  ETV
attr source  node2
attr title  "Opoznienia node2, vector"
vector 62  SymScenerio.node[3].veinsmobility  posx  ETV
vector 63  SymScenerio.node[3].veinsmobility  posy  ETV
vector 61  SymScenerio.node[3].nic.mac1609_4  "Interwały kanałów"  ETV
vector 64  SymScenerio.node[3].veinsmobility  speed  ETV
vector 65  SymScenerio.node[3].veinsmobility  acceleration  ETV
vector 66  SymScenerio.node[3].veinsmobility  co2emission  ETV
vector 54  SymScenerio.node[3].appl  "TX Packets"  ETV
vector 55  SymScenerio.node[3].appl  "TX Total"  ETV
vector 56  SymScenerio.node[3].appl  Pakietyzacja  ETV
vector 3  SymScenerio.rsu[0].appl  node3:vector  ETV
attr source  node3
attr title  "Opoznienia node3, vector"
vector 75  SymScenerio.node[4].veinsmobility  posx  ETV
vector 76  SymScenerio.node[4].veinsmobility  posy  ETV
vector 74  SymScenerio.node[4].nic.mac1609_4  "Interwały kanałów"  ETV
vector 77  SymScenerio.node[4].veinsmobility  speed  ETV
vector 78  SymScenerio.node[4].veinsmobility  acceleration  ETV
vector 79  SymScenerio.node[4].veinsmobility  co2emission  ETV
vector 67  SymScenerio.node[4].appl  "TX Packets"  ETV
vector 68  SymScenerio.node[4].appl  "TX Total"  ETV
vector 69  SymScenerio.node[4].appl  Pakietyzacja  ETV
vector 4  SymScenerio.rsu[0].appl  node4:vector  ETV
attr source  node4
attr title  "Opoznienia node4, vector"
17	12	0.251055546054	1.002
17	27	0.281055546054	1.002
17	45	0.311055546054	1.002
17	47	0.341055546054	1.002
17	77	0.371055546054	1.002
17	95	0.401055546054	1.002
17	97	0.431055546054	1.002
17	127	0.461055546054	1.002
17	142	0.491055546054	1.002
17	160	0.521055546054	1.002
17	164	0.551055546054	1.002
17	192	0.581055546054	1.002
17	210	0.611055546054	1.002
17	212	0.641055546054	1.002
17	242	0.671055546054	1.002
17	260	0.701055546054	1.002
17	262	0.731055546054	1.002
17	292	0.761055546054	1.002
17	307	0.791055546054	1.002
17	325	0.821055546054	1.002
17	329	0.851055546054	1.002
17	357	0.881055546054	1.002
17	375	0.911055546054	1.002
17	377	0.941055546054	1.002
17	407	0.971055546054	1.002
17	425	1.001055546054	1.002
17	427	1.031055546054	1.002
17	457	1.061055546054	1.002
17	472	1.091055546054	1.002
17	490	1.121055546054	1.002
17	494	1.151055546054	1.002
17	522	1.181055546054	1.002
17	540	1.211055546054	1.002
17	542	1.241055546054	1.002
17	572	1.271055546054	1.002
17	590	1.301055546054	1.002
17	592	1.331055546054	1.002
17	622	1.361055546054	1.002
17	637	1.391055546054	1.002
17	655	1.421055546054	1.002
17	659	1.451055546054	1.002
17	687	1.481055546054	1.002
17	705	1.511055546054	1.002
17	707	1.541055546054	1.002
17	737	1.571055546054	1.002
17	755	1.601055546054	1.002
17	757	1.631055546054	1.002
17	787	1.661055546054	1.002
17	802	1.691055546054	1.002
17	820	1.721055546054	1.002
17	824	1.751055546054	1.002
17	852	1.781055546054	1.002
17	870	1.811055546054	1.002
17	872	1.841055546054	1.002
17	902	1.871055546054	1.002
17	920	1.901055546054	1.002
17	922	1.931055546054	1.002
17	952	1.961055546054	1.002
17	967	1.991055546054	1.002
17	985	2.021055546054	1.002
17	989	2.051055546054	1.002
17	1017	2.081055546054	1.002
17	1035	2.111055546054	1.002
17	1037	2.141055546054	1.002
17	1067	2.171055546054	1.002
17	1085	2.201055546054	1.002
17	1087	2.231055546054	1.002
17	1117	2.261055546054	1.002
17	1132	2.291055546054	1.002
17	1150	2.321055546054	1.002
17	1154	2.351055546054	1.002
17	1182	2.381055546054	1.002
17	1200	2.411055546054	1.002
17	1202	2.441055546054	1.002
17	1232	2.471055546054	1.002
17	1250	2.501055546054	1.002
17	1252	2.531055546054	1.002
17	1282	2.561055546054	1.002
17	1297	2.591055546054	1.002
17	1315	2.621055546054	1.002
17	1319	2.651055546054	1.002
17	1347	2.681055546054	1.002
17	1365	2.711055546054	1.002
17	1367	2.741055546054	1.002
17	1397	2.771055546054	1.002
17	1415	2.801055546054	1.002
17	1417	2.831055546054	1.002
17	1447	2.861055546054	1.002
17	1462	2.891055546054	1.002
17	1480	2.921055546054	1.002
17	1484	2.951055546054	1.002
17	1512	2.981055546054	1.002
17	1530	3.011055546054	1.002
17	1532	3.041055546054	1.002
17	1562	3.071055546054	1.002
17	1580	3.101055546054	1.002
17	1582	3.131055546054	1.002
17	1625	3.161055546054	1.002
17	1646	3.191055546054	1.002
17	1671	3.221055546054	1.002
17	1676	3.251055546054	1.002
17	1716	3.281055546054	1.002
17	1741	3.311055546054	1.002
17	1743	3.341055546054	1.002
17	1786	3.371055546054	1.002
17	1811	3.401055546054	1.002
17	1813	3.431055546054	1.002
17	1856	3.461055546054	1.002
17	1877	3.491055546054	1.002
17	1902	3.521055546054	1.002
17	1907	3.551055546054	1.002
17	1968	3.581055546054	1.002
17	2014	3.611055546054	1.002
17	2018	3.641055546054	1.002
17	2101	3.671055546054	1.002
17	2147	3.701055546054	1.002
17	2151	3.731055546054	1.002
17	2234	3.761055546054	1.002
17	2276	3.791055546054	1.002
17	2303	3.821055546054	1.002
17	2310	3.851055546054	1.002
17	2402	3.881055546054	1.002
17	2448	3.911055546054	1.002
17	2452	3.941055546054	1.002
17	2535	3.971055546054	1.002
17	2581	4.001055546054	1.002
17	2585	4.031055546054	1.002
17	2668	4.061055546054	1.002
17	2710	4.091055546054	1.002
17	2737	4.121055546054	1.002
17	2744	4.151055546054	1.002
17	2843	4.181055546054	1.002
17	2889	4.211055546054	1.002
17	2893	4.241055546054	1.002
17	2976	4.271055546054	1.002
17	3022	4.301055546054	1.002
17	3026	4.331055546054	1.002
17	3109	4.361055546054	1.002
17	3151	4.391055546054	1.002
17	3178	4.421055546054	1.002
17	3185	4.451055546054	1.002
17	3277	4.481055546054	1.002
17	3323	4.511055546054	1.002
17	3327	4.541055546054	1.002
17	3410	4.571055546054	1.002
17	3456	4.601055546054	1.002
17	3460	4.631055546054	1.002
17	3543	4.661055546054	1.002
17	3585	4.691055546054	1.002
17	3612	4.721055546054	1.002
17	3619	4.751055546054	1.002
17	3711	4.781055546054	1.002
17	3757	4.811055546054	1.002
17	3761	4.841055546054	1.002
17	3844	4.871055546054	1.002
17	3890	4.901055546054	1.002
17	3894	4.931055546054	1.002
17	3970	4.961055546054	1.002
17	4012	4.991055546054	1.002
17	4039	5.021055546054	1.002
17	4046	5.051055546054	1.002
17	4145	5.081055546054	1.002
17	4191	5.111055546054	1.002
17	4195	5.141055546054	1.002
17	4278	5.171055546054	1.002
17	4324	5.201055546054	1.002
17	4328	5.231055546054	1.002
17	4404	5.261055546054	1.002
17	4446	5.291055546054	1.002
17	4473	5.321055546054	1.002
17	4480	5.351055546054	1.002
17	4579	5.381055546054	1.002
17	4625	5.411055546054	1.002
17	4629	5.441055546054	1.002
17	4712	5.471055546054	1.002
17	4758	5.501055546054	1.002
17	4762	5.531055546054	1.002
17	4838	5.561055546054	1.002
17	4880	5.591055546054	1.002
17	4907	5.621055546054	1.002
17	4914	5.651055546054	1.002
17	5013	5.681055546054	1.002
17	5059	5.711055546054	1.002
17	5063	5.741055546054	1.002
17	5146	5.771055546054	1.002
17	5192	5.801055546054	1.002
17	5196	5.831055546054	1.002
17	5279	5.861055546054	1.002
17	5321	5.891055546054	1.002
17	5348	5.921055546054	1.002
17	5355	5.951055546054	1.002
17	5454	5.981055546054	1.002
17	5500	6.011055546054	1.002
17	5504	6.041055546054	1.002
17	5587	6.071055546054	1.002
17	5633	6.101055546054	1.002
17	5637	6.131055546054	1.002
17	5745	6.161055546054	1.002
17	5799	6.191055546054	1.002
17	5833	6.221055546054	1.002
17	5841	6.251055546054	1.002
17	5960	6.281055546054	1.002
17	6019	6.311055546054	1.002
17	6023	6.341055546054	1.002
17	6131	6.371055546054	1.002
17	6190	6.401055546054	1.002
17	6194	6.431055546054	1.002
17	6292	6.461055546054	1.002
17	6346	6.491055546054	1.002
17	6380	6.521055546054	1.002
17	6388	6.551055546054	1.002
17	6507	6.581055546054	1.002
17	6566	6.611055546054	1.002
17	6570	6.641055546054	1.002
17	6678	6.671055546054	1.002
17	6737	6.701055546054	1.002
17	6741	6.731055546054	1.002
17	6849	6.761055546054	1.002
17	6903	6.791055546054	1.002
17	6937	6.821055546054	1.002
17	6945	6.851055546054	1.002
17	7064	6.881055546054	1.002
17	7123	6.911055546054	1.002
17	7129	6.941055546054	1.002
17	7289	6.971055546054	1.002
17	7350	7.001055546054	1.002
17	7356	7.031055546054	1.002
17	7524	7.061055546054	1.002
17	7605	7.091055546054	1.002
17	7641	7.121055546054	1.002
17	7651	7.151055546054	1.002
17	7847	7.181055546054	1.002
17	7908	7.211055546054	1.002
17	7914	7.241055546054	1.002
17	8079	7.271055546054	1.002
17	8140	7.301055546054	1.002
17	8146	7.331055546054	1.002
17	8321	7.361055546054	1.002
17	8402	7.391055546054	1.002
17	8438	7.421055546054	1.002
17	8448	7.451055546054	1.002
17	8644	7.481055546054	1.002
17	8705	7.511055546054	1.002
17	8711	7.541055546054	1.002
17	8896	7.571055546054	1.002
17	8957	7.601055546054	1.002
17	8963	7.631055546054	1.002
17	9138	7.661055546054	1.002
17	9219	7.691055546054	1.002
17	9255	7.721055546054	1.002
17	9265	7.751055546054	1.002
17	9451	7.781055546054	1.002
17	9512	7.811055546054	1.002
17	9518	7.841055546054	1.002
17	9693	7.871055546054	1.002
17	9754	7.901055546054	1.002
17	9760	7.931055546054	1.002
17	9935	7.961055546054	1.002
17	10016	7.991055546054	1.002
17	10052	8.021055546054	1.002
17	10062	8.051055546054	1.002
17	10258	8.081055546054	1.002
17	10319	8.111055546054	1.002
17	10325	8.141055546054	1.002
17	10500	8.171055546054	1.002
17	10561	8.201055546054	1.002
17	10567	8.231055546054	1.002
17	10752	8.261055546054	1.002
17	10833	8.291055546054	1.002
17	10869	8.321055546054	1.002
17	10879	8.351055546054	1.002
17	11075	8.381055546054	1.002
17	11136	8.411055546054	1.002
17	11142	8.441055546054	1.002
17	11327	8.471055546054	1.002
17	11388	8.501055546054	1.002
17	11394	8.531055546054	1.002
17	11569	8.561055546054	1.002
17	11650	8.591055546054	1.002
17	11686	8.621055546054	1.002
17	11696	8.651055546054	1.002
17	11892	8.681055546054	1.002
17	11953	8.711055546054	1.002
17	11959	8.741055546054	1.002
17	12134	8.771055546054	1.002
17	12195	8.801055546054	1.002
17	12201	8.831055546054	1.002
17	12376	8.861055546054	1.002
17	12457	8.891055546054	1.002
17	12493	8.921055546054	1.002
17	12503	8.951055546054	1.002
17	12699	8.981055546054	1.002
17	12760	9.011055546054	1.002
17	12766	9.041055546054	1.002
17	12951	9.071055546054	1.002
17	13012	9.101055546054	1.002
17	13018	9.131055546054	1.002
17	13221	9.161055546054	1.002
17	13320	9.191055546054	1.002
17	13363	9.221055546054	1.002
17	13374	9.251055546054	1.002
17	13606	9.281055546054	1.002
17	13680	9.311055546054	1.002
17	13686	9.341055546054	1.002
17	13947	9.371055546054	1.002
17	14054	9.401055546054	1.002
17	14062	9.431055546054	1.002
17	14328	9.461055546054	1.002
17	14460	9.491055546054	1.002
17	14505	9.521055546054	1.002
17	14518	9.551055546054	1.002
17	14833	9.581055546054	1.002
17	14909	9.611055546054	1.002
17	14917	9.641055546054	1.002
17	15227	9.671055546054	1.002
17	15334	9.701055546054	1.002
17	15342	9.731055546054	1.002
17	15609	9.761055546054	1.002
17	15741	9.791055546054	1.002
17	15786	9.821055546054	1.002
17	15799	9.851055546054	1.002
17	16109	9.881055546054	1.002
17	16185	9.911055546054	1.002
17	16193	9.941055546054	1.002
17	16503	9.971055546054	1.002
17	16610	10.001055546054	1.002
17	16618	10.031055546054	1.002
17	16884	10.061055546054	1.002
17	17016	10.091055546054	1.002
17	17061	10.121055546054	1.002
17	17074	10.151055546054	1.002
17	17401	10.181055546054	1.002
17	17477	10.211055546054	1.002
17	17485	10.241055546054	1.002
17	17795	10.271055546054	1.002
17	17902	10.301055546054	1.002
17	17910	10.331055546054	1.002
17	18163	10.361055546054	1.002
17	18295	10.391055546054	1.002
17	18340	10.421055546054	1.002
17	18353	10.451055546054	1.002
17	18667	10.481055546054	1.002
17	18743	10.511055546054	1.002
17	18751	10.541055546054	1.002
17	19048	10.571055546054	1.002
17	19155	10.601055546054	1.002
17	19163	10.631055546054	1.002
17	19420	10.661055546054	1.002
17	19552	10.691055546054	1.002
17	19597	10.721055546054	1.002
17	19610	10.751055546054	1.002
17	19924	10.781055546054	1.002
17	20000	10.811055546054	1.002
17	20008	10.841055546054	1.002
17	20309	10.871055546054	1.002
17	20416	10.901055546054	1.002
17	20424	10.931055546054	1.002
17	20690	10.961055546054	1.002
17	20822	10.991055546054	1.002
17	20867	11.021055546054	1.002
17	20880	11.051055546054	1.002
17	21194	11.081055546054	1.002
17	21270	11.111055546054	1.002
17	21278	11.141055546054	1.002
17	21579	11.171055546054	1.002
17	21686	11.201055546054	1.002
17	21694	11.231055546054	1.002
17	21960	11.261055546054	1.002
17	22092	11.291055546054	1.002
17	22137	11.321055546054	1.002
17	22150	11.351055546054	1.002
17	22477	11.381055546054	1.002
17	22553	11.411055546054	1.002
17	22561	11.441055546054	1.002
17	22845	11.471055546054	1.002
17	22952	11.501055546054	1.002
17	22960	11.531055546054	1.002
17	23213	11.561055546054	1.002
17	23345	11.591055546054	1.002
17	23390	11.621055546054	1.002
17	23403	11.651055546054	1.002
17	23717	11.681055546054	1.002
17	23793	11.711055546054	1.002
17	23801	11.741055546054	1.002
17	24102	11.771055546054	1.002
17	24209	11.801055546054	1.002
17	24217	11.831055546054	1.002
17	24465	11.861055546054	1.002
17	24597	11.891055546054	1.002
17	24642	11.921055546054	1.002
17	24655	11.951055546054	1.002
17	24978	11.981055546054	1.002
17	25054	12.011055546054	1.002
17	25062	12.041055546054	1.002
17	25350	12.071055546054	1.002
17	25457	12.101055546054	1.002
17	25465	12.131055546054	1.002
17	25781	12.161055546054	1.002
17	25937	12.191055546054	1.002
17	25989	12.221055546054	1.002
17	26003	12.251055546054	1.002
17	26375	12.281055546054	1.002
17	26464	12.311055546054	1.002
17	26472	12.341055546054	1.002
17	26825	12.371055546054	1.002
17	26951	12.401055546054	1.002
17	26959	12.431055546054	1.002
17	27263	12.461055546054	1.002
17	27419	12.491055546054	1.002
17	27471	12.521055546054	1.002
17	27485	12.551055546054	1.002
17	27857	12.581055546054	1.002
17	27946	12.611055546054	1.002
17	27954	12.641055546054	1.002
17	28346	12.671055546054	1.002
17	28511	12.701055546054	1.002
17	28521	12.731055546054	1.002
17	28890	12.761055546054	1.002
17	29085	12.791055546054	1.002
17	29139	12.821055546054	1.002
17	29155	12.851055546054	1.002
17	29651	12.881055546054	1.002
17	29742	12.911055546054	1.002
17	29752	12.941055546054	1.002
17	30190	12.971055546054	1.002
17	30355	13.001055546054	1.002
17	30365	13.031055546054	1.002
17	30725	13.061055546054	1.002
17	30920	13.091055546054	1.002
17	30974	13.121055546054	1.002
17	30990	13.151055546054	1.002
17	31475	13.181055546054	1.002
17	31566	13.211055546054	1.002
17	31576	13.241055546054	1.002
17	32057	13.271055546054	1.002
17	32222	13.301055546054	1.002
17	32232	13.331055546054	1.002
17	32608	13.361055546054	1.002
17	32803	13.391055546054	1.002
17	32857	13.421055546054	1.002
17	32873	13.451055546054	1.002
17	33342	13.481055546054	1.002
17	33433	13.511055546054	1.002
17	33443	13.541055546054	1.002
17	33882	13.571055546054	1.002
17	34047	13.601055546054	1.002
17	34057	13.631055546054	1.002
17	34422	13.661055546054	1.002
17	34617	13.691055546054	1.002
17	34671	13.721055546054	1.002
17	34687	13.751055546054	1.002
17	35152	13.781055546054	1.002
17	35243	13.811055546054	1.002
17	35253	13.841055546054	1.002
17	35707	13.871055546054	1.002
17	35872	13.901055546054	1.002
17	35882	13.931055546054	1.002
17	36246	13.961055546054	1.002
17	36441	13.991055546054	1.002
17	36495	14.021055546054	1.002
17	36511	14.051055546054	1.002
17	36996	14.081055546054	1.002
17	37087	14.111055546054	1.002
17	37097	14.141055546054	1.002
17	37541	14.171055546054	1.002
17	37706	14.201055546054	1.002
17	37716	14.231055546054	1.002
17	38080	14.261055546054	1.002
17	38275	14.291055546054	1.002
17	38329	14.321055546054	1.002
17	38345	14.351055546054	1.002
17	38792	14.381055546054	1.002
17	38883	14.411055546054	1.002
17	38893	14.441055546054	1.002
17	39342	14.471055546054	1.002
17	39507	14.501055546054	1.002
17	39517	14.531055546054	1.002
17	39897	14.561055546054	1.002
17	40092	14.591055546054	1.002
17	40146	14.621055546054	1.002
17	40162	14.651055546054	1.002
17	40636	14.681055546054	1.002
17	40727	14.711055546054	1.002
17	40737	14.741055546054	1.002
17	41191	14.771055546054	1.002
17	41356	14.801055546054	1.002
17	41366	14.831055546054	1.002
17	41746	14.861055546054	1.002
17	41941	14.891055546054	1.002
17	41995	14.921055546054	1.002
17	42011	14.951055546054	1.002
17	42480	14.981055546054	1.002
17	42571	15.011055546054	1.002
17	42581	15.041055546054	1.002
17	43035	15.071055546054	1.002
17	43200	15.101055546054	1.002
17	43210	15.131055546054	1.002
17	43585	15.161055546054	1.002
17	43780	15.191055546054	1.002
17	43834	15.221055546054	1.002
17	43850	15.251055546054	1.002
17	44330	15.281055546054	1.002
17	44421	15.311055546054	1.002
17	44431	15.341055546054	1.002
17	44880	15.371055546054	1.002
17	45045	15.401055546054	1.002
17	45055	15.431055546054	1.002
17	45435	15.461055546054	1.002
17	45630	15.491055546054	1.002
17	45684	15.521055546054	1.002
17	45700	15.551055546054	1.002
17	46164	15.581055546054	1.002
17	46255	15.611055546054	1.002
17	46265	15.641055546054	1.002
17	46703	15.671055546054	1.002
17	46868	15.701055546054	1.002
17	46878	15.731055546054	1.002
17	47247	15.761055546054	1.002
17	47442	15.791055546054	1.002
17	47496	15.821055546054	1.002
17	47512	15.851055546054	1.002
17	47986	15.881055546054	1.002
17	48077	15.911055546054	1.002
17	48087	15.941055546054	1.002
17	48541	15.971055546054	1.002
17	48706	16.001055546054	1.002
17	48716	16.031055546054	1.002
17	49091	16.061055546054	1.002
17	49286	16.091055546054	1.002
17	49340	16.121055546054	1.002
17	49356	16.151055546054	1.002
17	49825	16.181055546054	1.002
17	49916	16.211055546054	1.002
17	49926	16.241055546054	1.002
17	50380	16.271055546054	1.002
17	50545	16.301055546054	1.002
17	50555	16.331055546054	1.002
17	50919	16.361055546054	1.002
17	51114	16.391055546054	1.002
17	51168	16.421055546054	1.002
17	51184	16.451055546054	1.002
17	51669	16.481055546054	1.002
17	51760	16.511055546054	1.002
17	51770	16.541055546054	1.002
17	52235	16.571055546054	1.002
17	52400	16.601055546054	1.002
17	52410	16.631055546054	1.002
17	52790	16.661055546054	1.002
17	52985	16.691055546054	1.002
17	53039	16.721055546054	1.002
17	53055	16.751055546054	1.002
17	53513	16.781055546054	1.002
17	53604	16.811055546054	1.002
17	53614	16.841055546054	1.002
17	54068	16.871055546054	1.002
17	54233	16.901055546054	1.002
17	54243	16.931055546054	1.002
17	54607	16.961055546054	1.002
17	54802	16.991055546054	1.002
17	54856	17.021055546054	1.002
17	54872	17.051055546054	1.002
17	55351	17.081055546054	1.002
17	55442	17.111055546054	1.002
17	55452	17.141055546054	1.002
17	55901	17.171055546054	1.002
17	56066	17.201055546054	1.002
17	56076	17.231055546054	1.002
17	56456	17.261055546054	1.002
17	56651	17.291055546054	1.002
17	56705	17.321055546054	1.002
17	56721	17.351055546054	1.002
17	57195	17.381055546054	1.002
17	57286	17.411055546054	1.002
17	57296	17.441055546054	1.002
17	57750	17.471055546054	1.002
17	57915	17.501055546054	1.002
17	57925	17.531055546054	1.002
17	58284	17.561055546054	1.002
17	58479	17.591055546054	1.002
17	58533	17.621055546054	1.002
17	58549	17.651055546054	1.002
17	59018	17.681055546054	1.002
17	59109	17.711055546054	1.002
17	59119	17.741055546054	1.002
17	59584	17.771055546054	1.002
17	59749	17.801055546054	1.002
17	59759	17.831055546054	1.002
17	60139	17.861055546054	1.002
17	60334	17.891055546054	1.002
17	60388	17.921055546054	1.002
17	60404	17.951055546054	1.002
17	60873	17.981055546054	1.002
17	60964	18.011055546054	1.002
17	60974	18.041055546054	1.002
17	61417	18.071055546054	1.002
17	61582	18.101055546054	1.002
17	61592	18.131055546054	1.002
17	61967	18.161055546054	1.002
17	62162	18.191055546054	1.002
17	62216	18.221055546054	1.002
17	62232	18.251055546054	1.002
17	62712	18.281055546054	1.002
17	62803	18.311055546054	1.002
17	62813	18.341055546054	1.002
17	63278	18.371055546054	1.002
17	63443	18.401055546054	1.002
17	63453	18.431055546054	1.002
17	63833	18.461055546054	1.002
17	64028	18.491055546054	1.002
17	64082	18.521055546054	1.002
17	64098	18.551055546054	1.002
17	64583	18.581055546054	1.002
17	64674	18.611055546054	1.002
17	64684	18.641055546054	1.002
17	65133	18.671055546054	1.002
17	65298	18.701055546054	1.002
17	65308	18.731055546054	1.002
17	65688	18.761055546054	1.002
17	65883	18.791055546054	1.002
17	65937	18.821055546054	1.002
17	65953	18.851055546054	1.002
17	66422	18.881055546054	1.002
17	66513	18.911055546054	1.002
17	66523	18.941055546054	1.002
17	66988	18.971055546054	1.002
17	67153	19.001055546054	1.002
17	67163	19.031055546054	1.002
17	67543	19.061055546054	1.002
17	67738	19.091055546054	1.002
17	67792	19.121055546054	1.002
17	67808	19.151055546054	1.002
17	68304	19.181055546054	1.002
17	68395	19.211055546054	1.002
17	68405	19.241055546054	1.002
17	68864	19.271055546054	1.002
17	69029	19.301055546054	1.002
17	69039	19.331055546054	1.002
17	69397	19.361055546054	1.002
17	69592	19.391055546054	1.002
17	69646	19.421055546054	1.002
17	69662	19.451055546054	1.002
17	70147	19.481055546054	1.002
17	70238	19.511055546054	1.002
17	70248	19.541055546054	1.002
17	70713	19.571055546054	1.002
17	70878	19.601055546054	1.002
17	70888	19.631055546054	1.002
17	71268	19.661055546054	1.002
17	71463	19.691055546054	1.002
17	71517	19.721055546054	1.002
17	71533	19.751055546054	1.002
17	72002	19.781055546054	1.002
17	72093	19.811055546054	1.002
17	72103	19.841055546054	1.002
17	72557	19.871055546054	1.002
17	72722	19.901055546054	1.002
17	72732	19.931055546054	1.002
17	73112	19.961055546054	1.002
17	73307	19.991055546054	1.002
17	73361	20.021055546054	1.002
17	73377	20.051055546054	1.002
17	73851	20.081055546054	1.002
17	73942	20.111055546054	1.002
17	73952	20.141055546054	1.002
17	74417	20.171055546054	1.002
17	74582	20.201055546054	1.002
17	74592	20.231055546054	1.002
17	74951	20.261055546054	1.002
17	75146	20.291055546054	1.002
17	75200	20.321055546054	1.002
17	75216	20.351055546054	1.002
17	75701	20.381055546054	1.002
17	75792	20.411055546054	1.002
17	75802	20.441055546054	1.002
17	76256	20.471055546054	1.002
17	76421	20.501055546054	1.002
17	76431	20.531055546054	1.002
17	76795	20.561055546054	1.002
17	76990	20.591055546054	1.002
17	77044	20.621055546054	1.002
17	77060	20.651055546054	1.002
17	77556	20.681055546054	1.002
17	77647	20.711055546054	1.002
17	77657	20.741055546054	1.002
17	78090	20.771055546054	1.002
17	78255	20.801055546054	1.002
17	78265	20.831055546054	1.002
17	78634	20.861055546054	1.002
17	78829	20.891055546054	1.002
17	78883	20.921055546054	1.002
17	78899	20.951055546054	1.002
17	79373	20.981055546054	1.002
17	79464	21.011055546054	1.002
17	79474	21.041055546054	1.002
17	79939	21.071055546054	1.002
17	80104	21.101055546054	1.002
17	80114	21.131055546054	1.002
17	80489	21.161055546054	1.002
17	80684	21.191055546054	1.002
17	80738	21.221055546054	1.002
17	80754	21.251055546054	1.002
17	81218	21.281055546054	1.002
17	81309	21.311055546054	1.002
17	81319	21.341055546054	1.002
17	81784	21.371055546054	1.002
17	81949	21.401055546054	1.002
17	81959	21.431055546054	1.002
17	82334	21.461055546054	1.002
17	82529	21.491055546054	1.002
17	82583	21.521055546054	1.002
17	82599	21.551055546054	1.002
17	83073	21.581055546054	1.002
17	83164	21.611055546054	1.002
17	83174	21.641055546054	1.002
17	83628	21.671055546054	1.002
17	83793	21.701055546054	1.002
17	83803	21.731055546054	1.002
17	84172	21.761055546054	1.002
17	84367	21.791055546054	1.002
17	84421	21.821055546054	1.002
17	84437	21.851055546054	1.002
17	84917	21.881055546054	1.002
17	85008	21.911055546054	1.002
17	85018	21.941055546054	1.002
17	85483	21.971055546054	1.002
17	85648	22.001055546054	1.002
17	85658	22.031055546054	1.002
17	86033	22.061055546054	1.002
17	86228	22.091055546054	1.002
17	86282	22.121055546054	1.002
17	86298	22.151055546054	1.002
17	86772	22.181055546054	1.002
17	86863	22.211055546054	1.002
17	86873	22.241055546054	1.002
17	87338	22.271055546054	1.002
17	87503	22.301055546054	1.002
17	87513	22.331055546054	1.002
17	87872	22.361055546054	1.002
17	88067	22.391055546054	1.002
17	88121	22.421055546054	1.002
17	88137	22.451055546054	1.002
17	88617	22.481055546054	1.002
17	88708	22.511055546054	1.002
17	88718	22.541055546054	1.002
17	89151	22.571055546054	1.002
17	89316	22.601055546054	1.002
17	89326	22.631055546054	1.002
17	89695	22.661055546054	1.002
17	89890	22.691055546054	1.002
17	89944	22.721055546054	1.002
17	89960	22.751055546054	1.002
17	90429	22.781055546054	1.002
17	90520	22.811055546054	1.002
17	90530	22.841055546054	1.002
17	90984	22.871055546054	1.002
17	91149	22.901055546054	1.002
17	91159	22.931055546054	1.002
17	91539	22.961055546054	1.002
17	91734	22.991055546054	1.002
17	91788	23.021055546054	1.002
17	91804	23.051055546054	1.002
17	92278	23.081055546054	1.002
17	92369	23.111055546054	1.002
17	92379	23.141055546054	1.002
17	92828	23.171055546054	1.002
17	92993	23.201055546054	1.002
17	93003	23.231055546054	1.002
17	93394	23.261055546054	1.002
17	93589	23.291055546054	1.002
17	93643	23.321055546054	1.002
17	93659	23.351055546054	1.002
17	94123	23.381055546054	1.002
17	94214	23.411055546054	1.002
17	94224	23.441055546054	1.002
17	94689	23.471055546054	1.002
17	94854	23.501055546054	1.002
17	94864	23.531055546054	1.002
17	95217	23.561055546054	1.002
17	95412	23.591055546054	1.002
17	95466	23.621055546054	1.002
17	95482	23.651055546054	1.002
17	95956	23.681055546054	1.002
17	96047	23.711055546054	1.002
17	96057	23.741055546054	1.002
17	96522	23.771055546054	1.002
17	96687	23.801055546054	1.002
17	96697	23.831055546054	1.002
17	97066	23.861055546054	1.002
17	97261	23.891055546054	1.002
17	97315	23.921055546054	1.002
17	97331	23.951055546054	1.002
17	97800	23.981055546054	1.002
17	97891	24.011055546054	1.002
17	97901	24.041055546054	1.002
17	98339	24.071055546054	1.002
17	98504	24.101055546054	1.002
17	98514	24.131055546054	1.002
17	98878	24.161055546054	1.002
17	99073	24.191055546054	1.002
17	99127	24.221055546054	1.002
17	99143	24.251055546054	1.002
17	99623	24.281055546054	1.002
17	99714	24.311055546054	1.002
17	99724	24.341055546054	1.002
17	100178	24.371055546054	1.002
17	100343	24.401055546054	1.002
17	100353	24.431055546054	1.002
17	100717	24.461055546054	1.002
17	100912	24.491055546054	1.002
17	100966	24.521055546054	1.002
17	100982	24.551055546054	1.002
17	101451	24.581055546054	1.002
17	101542	24.611055546054	1.002
17	101552	24.641055546054	1.002
17	102001	24.671055546054	1.002
17	102166	24.701055546054	1.002
17	102176	24.731055546054	1.002
17	102567	24.761055546054	1.002
17	102762	24.791055546054	1.002
17	102816	24.821055546054	1.002
17	102832	24.851055546054	1.002
17	103296	24.881055546054	1.002
17	103387	24.911055546054	1.002
17	103397	24.941055546054	1.002
17	103846	24.971055546054	1.002
17	104011	25.001055546054	1.002
17	104021	25.031055546054	1.002
17	104385	25.061055546054	1.002
17	104580	25.091055546054	1.002
17	104634	25.121055546054	1.002
17	104650	25.151055546054	1.002
17	105108	25.181055546054	1.002
17	105199	25.211055546054	1.002
17	105209	25.241055546054	1.002
17	105674	25.271055546054	1.002
17	105839	25.301055546054	1.002
17	105849	25.331055546054	1.002
17	106224	25.361055546054	1.002
17	106419	25.391055546054	1.002
17	106473	25.421055546054	1.002
17	106489	25.451055546054	1.002
17	106958	25.481055546054	1.002
17	107049	25.511055546054	1.002
17	107059	25.541055546054	1.002
17	107508	25.571055546054	1.002
17	107673	25.601055546054	1.002
17	107683	25.631055546054	1.002
17	108047	25.661055546054	1.002
17	108242	25.691055546054	1.002
17	108296	25.721055546054	1.002
17	108312	25.751055546054	1.002
17	108797	25.781055546054	1.002
17	108888	25.811055546054	1.002
17	108898	25.841055546054	1.002
17	109363	25.871055546054	1.002
17	109528	25.901055546054	1.002
17	109538	25.931055546054	1.002
17	109913	25.961055546054	1.002
17	110108	25.991055546054	1.002
17	110162	26.021055546054	1.002
17	110178	26.051055546054	1.002
17	110636	26.081055546054	1.002
17	110727	26.111055546054	1.002
17	110737	26.141055546054	1.002
17	111202	26.171055546054	1.002
17	111367	26.201055546054	1.002
17	111377	26.231055546054	1.002
17	111752	26.261055546054	1.002
17	111947	26.291055546054	1.002
17	112001	26.321055546054	1.002
17	112017	26.351055546054	1.002
17	112497	26.381055546054	1.002
17	112588	26.411055546054	1.002
17	112598	26.441055546054	1.002
17	113052	26.471055546054	1.002
17	113217	26.501055546054	1.002
17	113227	26.531055546054	1.002
17	113607	26.561055546054	1.002
17	113802	26.591055546054	1.002
17	113856	26.621055546054	1.002
17	113872	26.651055546054	1.002
17	114330	26.681055546054	1.002
17	114421	26.711055546054	1.002
17	114431	26.741055546054	1.002
17	114885	26.771055546054	1.002
17	115050	26.801055546054	1.002
17	115060	26.831055546054	1.002
17	115419	26.861055546054	1.002
17	115614	26.891055546054	1.002
17	115668	26.921055546054	1.002
17	115684	26.951055546054	1.002
17	116169	26.981055546054	1.002
17	116260	27.011055546054	1.002
17	116270	27.041055546054	1.002
17	116735	27.071055546054	1.002
17	116900	27.101055546054	1.002
17	116910	27.131055546054	1.002
17	117290	27.161055546054	1.002
17	117485	27.191055546054	1.002
17	117539	27.221055546054	1.002
17	117555	27.251055546054	1.002
17	118019	27.281055546054	1.002
17	118110	27.311055546054	1.002
17	118120	27.341055546054	1.002
17	118558	27.371055546054	1.002
17	118723	27.401055546054	1.002
17	118733	27.431055546054	1.002
17	119097	27.461055546054	1.002
17	119292	27.491055546054	1.002
17	119346	27.521055546054	1.002
17	119362	27.551055546054	1.002
17	119847	27.581055546054	1.002
17	119938	27.611055546054	1.002
17	119948	27.641055546054	1.002
17	120397	27.671055546054	1.002
17	120562	27.701055546054	1.002
17	120572	27.731055546054	1.002
17	120947	27.761055546054	1.002
17	121142	27.791055546054	1.002
17	121196	27.821055546054	1.002
17	121212	27.851055546054	1.002
17	121692	27.881055546054	1.002
17	121783	27.911055546054	1.002
17	121793	27.941055546054	1.002
17	122258	27.971055546054	1.002
17	122423	28.001055546054	1.002
17	122433	28.031055546054	1.002
17	122824	28.061055546054	1.002
17	123019	28.091055546054	1.002
17	123073	28.121055546054	1.002
17	123089	28.151055546054	1.002
17	123563	28.181055546054	1.002
17	123654	28.211055546054	1.002
17	123664	28.241055546054	1.002
17	124118	28.271055546054	1.002
17	124283	28.301055546054	1.002
17	124293	28.331055546054	1.002
17	124673	28.361055546054	1.002
17	124868	28.391055546054	1.002
17	124922	28.421055546054	1.002
17	124938	28.451055546054	1.002
17	125402	28.481055546054	1.002
17	125493	28.511055546054	1.002
17	125503	28.541055546054	1.002
17	125957	28.571055546054	1.002
17	126122	28.601055546054	1.002
17	126132	28.631055546054	1.002
17	126512	28.661055546054	1.002
17	126707	28.691055546054	1.002
17	126761	28.721055546054	1.002
17	126777	28.751055546054	1.002
17	127262	28.781055546054	1.002
17	127353	28.811055546054	1.002
17	127363	28.841055546054	1.002
17	127817	28.871055546054	1.002
17	127982	28.901055546054	1.002
17	127992	28.931055546054	1.002
17	128372	28.961055546054	1.002
17	128567	28.991055546054	1.002
17	128621	29.021055546054	1.002
17	128637	29.051055546054	1.002
17	129111	29.081055546054	1.002
17	129202	29.111055546054	1.002
17	129212	29.141055546054	1.002
17	129661	29.171055546054	1.002
17	129826	29.201055546054	1.002
17	129836	29.231055546054	1.002
17	130189	29.261055546054	1.002
17	130384	29.291055546054	1.002
17	130438	29.321055546054	1.002
17	130454	29.351055546054	1.002
17	130934	29.381055546054	1.002
17	131025	29.411055546054	1.002
17	131035	29.441055546054	1.002
17	131500	29.471055546054	1.002
17	131665	29.501055546054	1.002
17	131675	29.531055546054	1.002
17	132050	29.561055546054	1.002
17	132245	29.591055546054	1.002
17	132299	29.621055546054	1.002
17	132315	29.651055546054	1.002
17	132784	29.681055546054	1.002
17	132875	29.711055546054	1.002
17	132885	29.741055546054	1.002
17	133350	29.771055546054	1.002
17	133515	29.801055546054	1.002
17	133525	29.831055546054	1.002
17	133916	29.861055546054	1.002
17	134111	29.891055546054	1.002
17	134165	29.921055546054	1.002
17	134181	29.951055546054	1.002
17	134650	29.981055546054	1.002
17	134741	30.011055546054	1.002
17	134751	30.041055546054	1.002
17	135189	30.071055546054	1.002
17	135354	30.101055546054	1.002
17	135364	30.131055546054	1.002
17	135739	30.161055546054	1.002
17	135934	30.191055546054	1.002
17	135988	30.221055546054	1.002
17	136004	30.251055546054	1.002
17	136484	30.281055546054	1.002
17	136575	30.311055546054	1.002
17	136585	30.341055546054	1.002
17	137039	30.371055546054	1.002
17	137204	30.401055546054	1.002
17	137214	30.431055546054	1.002
17	137578	30.461055546054	1.002
17	137773	30.491055546054	1.002
17	137827	30.521055546054	1.002
17	137843	30.551055546054	1.002
17	138301	30.581055546054	1.002
17	138392	30.611055546054	1.002
17	138402	30.641055546054	1.002
17	138845	30.671055546054	1.002
17	139010	30.701055546054	1.002
17	139020	30.731055546054	1.002
17	139389	30.761055546054	1.002
17	139584	30.791055546054	1.002
17	139638	30.821055546054	1.002
17	139654	30.851055546054	1.002
17	140128	30.881055546054	1.002
17	140219	30.911055546054	1.002
17	140229	30.941055546054	1.002
17	140683	30.971055546054	1.002
17	140848	31.001055546054	1.002
17	140858	31.031055546054	1.002
17	141217	31.061055546054	1.002
17	141412	31.091055546054	1.002
17	141466	31.121055546054	1.002
17	141482	31.151055546054	1.002
17	141951	31.181055546054	1.002
17	142042	31.211055546054	1.002
17	142052	31.241055546054	1.002
17	142501	31.271055546054	1.002
17	142666	31.301055546054	1.002
17	142676	31.331055546054	1.002
17	143040	31.361055546054	1.002
17	143235	31.391055546054	1.002
17	143289	31.421055546054	1.002
17	143305	31.451055546054	1.002
17	143758	31.481055546054	1.002
17	143849	31.511055546054	1.002
17	143859	31.541055546054	1.002
17	144340	31.571055546054	1.002
17	144505	31.601055546054	1.002
17	144515	31.631055546054	1.002
17	144890	31.661055546054	1.002
17	145085	31.691055546054	1.002
17	145139	31.721055546054	1.002
17	145155	31.751055546054	1.002
17	145608	31.781055546054	1.002
17	145699	31.811055546054	1.002
17	145709	31.841055546054	1.002
17	146174	31.871055546054	1.002
17	146339	31.901055546054	1.002
17	146349	31.931055546054	1.002
17	146734	31.961055546054	1.002
17	146929	31.991055546054	1.002
17	146983	32.021055546054	1.002
17	146999	32.051055546054	1.002
17	147463	32.081055546054	1.002
17	147554	32.111055546054	1.002
17	147564	32.141055546054	1.002
17	148013	32.171055546054	1.002
17	148178	32.201055546054	1.002
17	148188	32.231055546054	1.002
17	148552	32.261055546054	1.002
17	148747	32.291055546054	1.002
17	148801	32.321055546054	1.002
17	148817	32.351055546054	1.002
17	149302	32.381055546054	1.002
17	149393	32.411055546054	1.002
17	149403	32.441055546054	1.002
17	149846	32.471055546054	1.002
17	150011	32.501055546054	1.002
17	150021	32.531055546054	1.002
17	150396	32.561055546054	1.002
17	150591	32.591055546054	1.002
17	150645	32.621055546054	1.002
17	150661	32.651055546054	1.002
17	151130	32.681055546054	1.002
17	151221	32.711055546054	1.002
17	151231	32.741055546054	1.002
17	151653	32.771055546054	1.002
17	151818	32.801055546054	1.002
17	151828	32.831055546054	1.002
17	152192	32.861055546054	1.002
17	152387	32.891055546054	1.002
17	152441	32.921055546054	1.002
17	152457	32.951055546054	1.002
17	152920	32.981055546054	1.002
17	153011	33.011055546054	1.002
17	153021	33.041055546054	1.002
17	153475	33.071055546054	1.002
17	153640	33.101055546054	1.002
17	153650	33.131055546054	1.002
17	154046	33.161055546054	1.002
17	154241	33.191055546054	1.002
17	154295	33.221055546054	1.002
17	154311	33.251055546054	1.002
17	154769	33.281055546054	1.002
17	154860	33.311055546054	1.002
17	154870	33.341055546054	1.002
17	155319	33.371055546054	1.002
17	155484	33.401055546054	1.002
17	155494	33.431055546054	1.002
17	155858	33.461055546054	1.002
17	156053	33.491055546054	1.002
17	156107	33.521055546054	1.002
17	156123	33.551055546054	1.002
17	156603	33.581055546054	1.002
17	156694	33.611055546054	1.002
17	156704	33.641055546054	1.002
17	157142	33.671055546054	1.002
17	157307	33.701055546054	1.002
17	157317	33.731055546054	1.002
17	157681	33.761055546054	1.002
17	157876	33.791055546054	1.002
17	157930	33.821055546054	1.002
17	157946	33.851055546054	1.002
17	158415	33.881055546054	1.002
17	158506	33.911055546054	1.002
17	158516	33.941055546054	1.002
17	158981	33.971055546054	1.002
17	159146	34.001055546054	1.002
17	159156	34.031055546054	1.002
17	159530	34.061055546054	1.002
17	159725	34.091055546054	1.002
17	159779	34.121055546054	1.002
17	159795	34.151055546054	1.002
17	160275	34.181055546054	1.002
17	160366	34.211055546054	1.002
17	160376	34.241055546054	1.002
17	160819	34.271055546054	1.002
17	160984	34.301055546054	1.002
17	160994	34.331055546054	1.002
17	161374	34.361055546054	1.002
17	161569	34.391055546054	1.002
17	161623	34.421055546054	1.002
17	161639	34.451055546054	1.002
17	162092	34.481055546054	1.002
17	162183	34.511055546054	1.002
17	162193	34.541055546054	1.002
17	162647	34.571055546054	1.002
17	162812	34.601055546054	1.002
17	162822	34.631055546054	1.002
17	163197	34.661055546054	1.002
17	163392	34.691055546054	1.002
17	163446	34.721055546054	1.002
17	163462	34.751055546054	1.002
17	163942	34.781055546054	1.002
17	164033	34.811055546054	1.002
17	164043	34.841055546054	1.002
17	164492	34.871055546054	1.002
17	164657	34.901055546054	1.002
17	164667	34.931055546054	1.002
17	165041	34.961055546054	1.002
17	165236	34.991055546054	1.002
17	165290	35.021055546054	1.002
17	165306	35.051055546054	1.002
17	165780	35.081055546054	1.002
17	165871	35.111055546054	1.002
17	165881	35.141055546054	1.002
17	166346	35.171055546054	1.002
17	166511	35.201055546054	1.002
17	166521	35.231055546054	1.002
17	166890	35.261055546054	1.002
17	167085	35.291055546054	1.002
17	167139	35.321055546054	1.002
17	167155	35.351055546054	1.002
17	167608	35.381055546054	1.002
17	167699	35.411055546054	1.002
17	167709	35.441055546054	1.002
17	168174	35.471055546054	1.002
17	168339	35.501055546054	1.002
17	168349	35.531055546054	1.002
17	168724	35.561055546054	1.002
17	168919	35.591055546054	1.002
17	168973	35.621055546054	1.002
17	168989	35.651055546054	1.002
17	169474	35.681055546054	1.002
17	169565	35.711055546054	1.002
17	169575	35.741055546054	1.002
17	170024	35.771055546054	1.002
17	170189	35.801055546054	1.002
17	170199	35.831055546054	1.002
17	170563	35.861055546054	1.002
17	170758	35.891055546054	1.002
17	170812	35.921055546054	1.002
17	170828	35.951055546054	1.002
17	171286	35.981055546054	1.002
17	171377	36.011055546054	1.002
17	171387	36.041055546054	1.002
17	171836	36.071055546054	1.002
17	172001	36.101055546054	1.002
17	172011	36.131055546054	1.002
17	172359	36.161055546054	1.002
17	172554	36.191055546054	1.002
17	172608	36.221055546054	1.002
17	172624	36.251055546054	1.002
17	173093	36.281055546054	1.002
17	173184	36.311055546054	1.002
17	173194	36.341055546054	1.002
17	173648	36.371055546054	1.002
17	173813	36.401055546054	1.002
17	173823	36.431055546054	1.002
17	174198	36.461055546054	1.002
17	174393	36.491055546054	1.002
17	174447	36.521055546054	1.002
17	174463	36.551055546054	1.002
17	174932	36.581055546054	1.002
17	175023	36.611055546054	1.002
17	175033	36.641055546054	1.002
17	175471	36.671055546054	1.002
17	175636	36.701055546054	1.002
17	175646	36.731055546054	1.002
17	176010	36.761055546054	1.002
17	176205	36.791055546054	1.002
17	176259	36.821055546054	1.002
17	176275	36.851055546054	1.002
17	176760	36.881055546054	1.002
17	176851	36.911055546054	1.002
17	176861	36.941055546054	1.002
17	177315	36.971055546054	1.002
17	177480	37.001055546054	1.002
17	177490	37.031055546054	1.002
17	177854	37.061055546054	1.002
17	178049	37.091055546054	1.002
17	178103	37.121055546054	1.002
17	178119	37.151055546054	1.002
17	178604	37.181055546054	1.002
17	178695	37.211055546054	1.002
17	178705	37.241055546054	1.002
17	179143	37.271055546054	1.002
17	179308	37.301055546054	1.002
17	179318	37.331055546054	1.002
17	179693	37.361055546054	1.002
17	179888	37.391055546054	1.002
17	179942	37.421055546054	1.002
17	179958	37.451055546054	1.002
17	180438	37.481055546054	1.002
17	180529	37.511055546054	1.002
17	180539	37.541055546054	1.002
17	180993	37.571055546054	1.002
17	181158	37.601055546054	1.002
17	181168	37.631055546054	1.002
17	181532	37.661055546054	1.002
17	181727	37.691055546054	1.002
17	181781	37.721055546054	1.002
17	181797	37.751055546054	1.002
17	182250	37.781055546054	1.002
17	182341	37.811055546054	1.002
17	182351	37.841055546054	1.002
17	182778	37.871055546054	1.002
17	182943	37.901055546054	1.002
17	182953	37.931055546054	1.002
17	183301	37.961055546054	1.002
17	183496	37.991055546054	1.002
17	183550	38.021055546054	1.002
17	183566	38.051055546054	1.002
17	184046	38.081055546054	1.002
17	184137	38.111055546054	1.002
17	184147	38.141055546054	1.002
17	184580	38.171055546054	1.002
17	184745	38.201055546054	1.002
17	184755	38.231055546054	1.002
17	185108	38.261055546054	1.002
17	185303	38.291055546054	1.002
17	185357	38.321055546054	1.002
17	185373	38.351055546054	1.002
17	185853	38.381055546054	1.002
17	185944	38.411055546054	1.002
17	185954	38.441055546054	1.002
17	186408	38.471055546054	1.002
17	186573	38.501055546054	1.002
17	186583	38.531055546054	1.002
17	186936	38.561055546054	1.002
17	187131	38.591055546054	1.002
17	187185	38.621055546054	1.002
17	187201	38.651055546054	1.002
17	187702	38.681055546054	1.002
17	187793	38.711055546054	1.002
17	187803	38.741055546054	1.002
17	188236	38.771055546054	1.002
17	188401	38.801055546054	1.002
17	188411	38.831055546054	1.002
17	188770	38.861055546054	1.002
17	188965	38.891055546054	1.002
17	189019	38.921055546054	1.002
17	189035	38.951055546054	1.002
17	189504	38.981055546054	1.002
17	189595	39.011055546054	1.002
17	189605	39.041055546054	1.002
17	190043	39.071055546054	1.002
17	190208	39.101055546054	1.002
17	190218	39.131055546054	1.002
17	190571	39.161055546054	1.002
17	190766	39.191055546054	1.002
17	190820	39.221055546054	1.002
17	190836	39.251055546054	1.002
17	191316	39.281055546054	1.002
17	191407	39.311055546054	1.002
17	191417	39.341055546054	1.002
17	191860	39.371055546054	1.002
17	192025	39.401055546054	1.002
17	192035	39.431055546054	1.002
17	192394	39.461055546054	1.002
17	192589	39.491055546054	1.002
17	192643	39.521055546054	1.002
17	192659	39.551055546054	1.002
17	193117	39.581055546054	1.002
17	193208	39.611055546054	1.002
17	193218	39.641055546054	1.002
17	193667	39.671055546054	1.002
17	193832	39.701055546054	1.002
17	193842	39.731055546054	1.002
17	194227	39.761055546054	1.002
17	194422	39.791055546054	1.002
17	194476	39.821055546054	1.002
17	194492	39.851055546054	1.002
17	194988	39.881055546054	1.002
17	195079	39.911055546054	1.002
17	195089	39.941055546054	1.002
17	195554	39.971055546054	1.002
17	195719	40.001055546054	1.002
17	195729	40.031055546054	1.002
17	196109	40.061055546054	1.002
17	196304	40.091055546054	1.002
17	196358	40.121055546054	1.002
17	196374	40.151055546054	1.002
17	196843	40.181055546054	1.002
17	196934	40.211055546054	1.002
17	196944	40.241055546054	1.002
17	197393	40.271055546054	1.002
17	197558	40.301055546054	1.002
17	197568	40.331055546054	1.002
17	197959	40.361055546054	1.002
17	198154	40.391055546054	1.002
17	198208	40.421055546054	1.002
17	198224	40.451055546054	1.002
17	198687	40.481055546054	1.002
17	198778	40.511055546054	1.002
17	198788	40.541055546054	1.002
17	199242	40.571055546054	1.002
17	199407	40.601055546054	1.002
17	199417	40.631055546054	1.002
17	199775	40.661055546054	1.002
17	199970	40.691055546054	1.002
17	200024	40.721055546054	1.002
17	200040	40.751055546054	1.002
17	200504	40.781055546054	1.002
17	200595	40.811055546054	1.002
17	200605	40.841055546054	1.002
17	201054	40.871055546054	1.002
17	201219	40.901055546054	1.002
17	201229	40.931055546054	1.002
17	201593	40.961055546054	1.002
17	201788	40.991055546054	1.002
17	201842	41.021055546054	1.002
17	201858	41.051055546054	1.002
17	202327	41.081055546054	1.002
17	202418	41.111055546054	1.002
17	202428	41.141055546054	1.002
17	202893	41.171055546054	1.002
17	203058	41.201055546054	1.002
17	203068	41.231055546054	1.002
17	203416	41.261055546054	1.002
17	203611	41.291055546054	1.002
17	203665	41.321055546054	1.002
17	203681	41.351055546054	1.002
17	204134	41.381055546054	1.002
17	204225	41.411055546054	1.002
17	204235	41.441055546054	1.002
17	204700	41.471055546054	1.002
17	204865	41.501055546054	1.002
17	204875	41.531055546054	1.002
17	205239	41.561055546054	1.002
17	205434	41.591055546054	1.002
17	205488	41.621055546054	1.002
17	205504	41.651055546054	1.002
17	205973	41.681055546054	1.002
17	206064	41.711055546054	1.002
17	206074	41.741055546054	1.002
17	206539	41.771055546054	1.002
17	206704	41.801055546054	1.002
17	206714	41.831055546054	1.002
17	207073	41.861055546054	1.002
17	207268	41.891055546054	1.002
17	207322	41.921055546054	1.002
17	207338	41.951055546054	1.002
17	207785	41.981055546054	1.002
17	207876	42.011055546054	1.002
17	207886	42.041055546054	1.002
17	208351	42.071055546054	1.002
17	208516	42.101055546054	1.002
17	208526	42.131055546054	1.002
17	208901	42.161055546054	1.002
17	209096	42.191055546054	1.002
17	209150	42.221055546054	1.002
17	209166	42.251055546054	1.002
17	209635	42.281055546054	1.002
17	209726	42.311055546054	1.002
17	209736	42.341055546054	1.002
17	210174	42.371055546054	1.002
17	210339	42.401055546054	1.002
17	210349	42.431055546054	1.002
17	210745	42.461055546054	1.002
17	210940	42.491055546054	1.002
17	210994	42.521055546054	1.002
17	211010	42.551055546054	1.002
17	211479	42.581055546054	1.002
17	211570	42.611055546054	1.002
17	211580	42.641055546054	1.002
17	212029	42.671055546054	1.002
17	212194	42.701055546054	1.002
17	212204	42.731055546054	1.002
17	212573	42.761055546054	1.002
17	212768	42.791055546054	1.002
17	212822	42.821055546054	1.002
17	212838	42.851055546054	1.002
17	213307	42.881055546054	1.002
17	213398	42.911055546054	1.002
17	213408	42.941055546054	1.002
17	213862	42.971055546054	1.002
17	214027	43.001055546054	1.002
17	214037	43.031055546054	1.002
17	214412	43.061055546054	1.002
17	214607	43.091055546054	1.002
17	214661	43.121055546054	1.002
17	214677	43.151055546054	1.002
17	215162	43.181055546054	1.002
17	215253	43.211055546054	1.002
17	215263	43.241055546054	1.002
17	215728	43.271055546054	1.002
17	215893	43.301055546054	1.002
17	215903	43.331055546054	1.002
17	216283	43.361055546054	1.002
17	216478	43.391055546054	1.002
17	216532	43.421055546054	1.002
17	216548	43.451055546054	1.002
17	217017	43.481055546054	1.002
17	217108	43.511055546054	1.002
17	217118	43.541055546054	1.002
17	217572	43.571055546054	1.002
17	217737	43.601055546054	1.002
17	217747	43.631055546054	1.002
17	218106	43.661055546054	1.002
17	218301	43.691055546054	1.002
17	218355	43.721055546054	1.002
17	218371	43.751055546054	1.002
17	218845	43.781055546054	1.002
17	218936	43.811055546054	1.002
17	218946	43.841055546054	1.002
17	219400	43.871055546054	1.002
17	219565	43.901055546054	1.002
17	219575	43.931055546054	1.002
17	219966	43.961055546054	1.002
17	220161	43.991055546054	1.002
17	220215	44.021055546054	1.002
17	220231	44.051055546054	1.002
17	220716	44.081055546054	1.002
17	220807	44.111055546054	1.002
17	220817	44.141055546054	1.002
17	221266	44.171055546054	1.002
17	221431	44.201055546054	1.002
17	221441	44.231055546054	1.002
17	221799	44.261055546054	1.002
17	221994	44.291055546054	1.002
17	222048	44.321055546054	1.002
17	222064	44.351055546054	1.002
17	222533	44.381055546054	1.002
17	222624	44.411055546054	1.002
17	222634	44.441055546054	1.002
17	223088	44.471055546054	1.002
17	223253	44.501055546054	1.002
17	223263	44.531055546054	1.002
17	223638	44.561055546054	1.002
17	223833	44.591055546054	1.002
17	223887	44.621055546054	1.002
17	223903	44.651055546054	1.002
17	224372	44.681055546054	1.002
17	224463	44.711055546054	1.002
17	224473	44.741055546054	1.002
17	224927	44.771055546054	1.002
17	225092	44.801055546054	1.002
17	225102	44.831055546054	1.002
17	225466	44.861055546054	1.002
17	225661	44.891055546054	1.002
17	225715	44.921055546054	1.002
17	225731	44.951055546054	1.002
17	226200	44.981055546054	1.002
17	226291	45.011055546054	1.002
17	226301	45.041055546054	1.002
17	226755	45.071055546054	1.002
17	226920	45.101055546054	1.002
17	226930	45.131055546054	1.002
17	227299	45.161055546054	1.002
17	227494	45.191055546054	1.002
17	227548	45.221055546054	1.002
17	227564	45.251055546054	1.002
17	228027	45.281055546054	1.002
17	228118	45.311055546054	1.002
17	228128	45.341055546054	1.002
17	228566	45.371055546054	1.002
17	228731	45.401055546054	1.002
17	228741	45.431055546054	1.002
17	229105	45.461055546054	1.002
17	229300	45.491055546054	1.002
17	229354	45.521055546054	1.002
17	229370	45.551055546054	1.002
17	229828	45.581055546054	1.002
17	229919	45.611055546054	1.002
17	229929	45.641055546054	1.002
17	230367	45.671055546054	1.002
17	230532	45.701055546054	1.002
17	230542	45.731055546054	1.002
17	230906	45.761055546054	1.002
17	231101	45.791055546054	1.002
17	231155	45.821055546054	1.002
17	231171	45.851055546054	1.002
17	231640	45.881055546054	1.002
17	231731	45.911055546054	1.002
17	231741	45.941055546054	1.002
17	232195	45.971055546054	1.002
17	232360	46.001055546054	1.002
17	232370	46.031055546054	1.002
17	232718	46.061055546054	1.002
17	232913	46.091055546054	1.002
17	232967	46.121055546054	1.002
17	232983	46.151055546054	1.002
17	233446	46.181055546054	1.002
17	233537	46.211055546054	1.002
17	233547	46.241055546054	1.002
17	233985	46.271055546054	1.002
17	234150	46.301055546054	1.002
17	234160	46.331055546054	1.002
17	234535	46.361055546054	1.002
17	234730	46.391055546054	1.002
17	234784	46.421055546054	1.002
17	234800	46.451055546054	1.002
17	235269	46.481055546054	1.002
17	235360	46.511055546054	1.002
17	235370	46.541055546054	1.002
17	235819	46.571055546054	1.002
17	235984	46.601055546054	1.002
17	235994	46.631055546054	1.002
17	236385	46.661055546054	1.002
17	236580	46.691055546054	1.002
17	236634	46.721055546054	1.002
17	236650	46.751055546054	1.002
17	237124	46.781055546054	1.002
17	237215	46.811055546054	1.002
17	237225	46.841055546054	1.002
17	237679	46.871055546054	1.002
17	237844	46.901055546054	1.002
17	237854	46.931055546054	1.002
17	238229	46.961055546054	1.002
17	238424	46.991055546054	1.002
17	238478	47.021055546054	1.002
17	238494	47.051055546054	1.002
17	238958	47.081055546054	1.002
17	239049	47.111055546054	1.002
17	239059	47.141055546054	1.002
17	239497	47.171055546054	1.002
17	239662	47.201055546054	1.002
17	239672	47.231055546054	1.002
17	240068	47.261055546054	1.002
17	240263	47.291055546054	1.002
17	240317	47.321055546054	1.002
17	240333	47.351055546054	1.002
17	240818	47.381055546054	1.002
17	240909	47.411055546054	1.002
17	240919	47.441055546054	1.002
17	241373	47.471055546054	1.002
17	241538	47.501055546054	1.002
17	241548	47.531055546054	1.002
17	241912	47.561055546054	1.002
17	242107	47.591055546054	1.002
17	242161	47.621055546054	1.002
17	242177	47.651055546054	1.002
17	242646	47.681055546054	1.002
17	242737	47.711055546054	1.002
17	242747	47.741055546054	1.002
17	243206	47.771055546054	1.002
17	243371	47.801055546054	1.002
17	243381	47.831055546054	1.002
17	243745	47.861055546054	1.002
17	243940	47.891055546054	1.002
17	243994	47.921055546054	1.002
17	244010	47.951055546054	1.002
17	244495	47.981055546054	1.002
17	244586	48.011055546054	1.002
17	244596	48.041055546054	1.002
17	245050	48.071055546054	1.002
17	245215	48.101055546054	1.002
17	245225	48.131055546054	1.002
17	245605	48.161055546054	1.002
17	245800	48.191055546054	1.002
17	245854	48.221055546054	1.002
17	245870	48.251055546054	1.002
17	246339	48.281055546054	1.002
17	246430	48.311055546054	1.002
17	246440	48.341055546054	1.002
17	246894	48.371055546054	1.002
17	247059	48.401055546054	1.002
17	247069	48.431055546054	1.002
17	247428	48.461055546054	1.002
17	247623	48.491055546054	1.002
17	247677	48.521055546054	1.002
17	247693	48.551055546054	1.002
17	248173	48.581055546054	1.002
17	248264	48.611055546054	1.002
17	248274	48.641055546054	1.002
17	248696	48.671055546054	1.002
17	248861	48.701055546054	1.002
17	248871	48.731055546054	1.002
17	249251	48.761055546054	1.002
17	249446	48.791055546054	1.002
17	249500	48.821055546054	1.002
17	249516	48.851055546054	1.002
17	249985	48.881055546054	1.002
17	250076	48.911055546054	1.002
17	250086	48.941055546054	1.002
17	250535	48.971055546054	1.002
17	250700	49.001055546054	1.002
17	250710	49.031055546054	1.002
17	251101	49.061055546054	1.002
17	251296	49.091055546054	1.002
17	251350	49.121055546054	1.002
17	251366	49.151055546054	1.002
17	251856	49.181055546054	1.002
17	251947	49.211055546054	1.002
17	251957	49.241055546054	1.002
17	252438	49.271055546054	1.002
17	252603	49.301055546054	1.002
17	252613	49.331055546054	1.002
17	252982	49.361055546054	1.002
17	253177	49.391055546054	1.002
17	253231	49.421055546054	1.002
17	253247	49.451055546054	1.002
17	253711	49.481055546054	1.002
17	253802	49.511055546054	1.002
17	253812	49.541055546054	1.002
17	254261	49.571055546054	1.002
17	254426	49.601055546054	1.002
17	254436	49.631055546054	1.002
17	254816	49.661055546054	1.002
17	255011	49.691055546054	1.002
17	255065	49.721055546054	1.002
17	255081	49.751055546054	1.002
17	255577	49.781055546054	1.002
17	255668	49.811055546054	1.002
17	255678	49.841055546054	1.002
17	256116	49.871055546054	1.002
17	256281	49.901055546054	1.002
17	256291	49.931055546054	1.002
17	256655	49.961055546054	1.002
17	256850	49.991055546054	1.002
17	256904	50.021055546054	1.002
17	256920	50.051055546054	1.002
17	257383	50.081055546054	1.002
17	257474	50.111055546054	1.002
17	257484	50.141055546054	1.002
17	257938	50.171055546054	1.002
17	258103	50.201055546054	1.002
17	258113	50.231055546054	1.002
17	258509	50.261055546054	1.002
17	258704	50.291055546054	1.002
17	258758	50.321055546054	1.002
17	258774	50.351055546054	1.002
17	259254	50.381055546054	1.002
17	259345	50.411055546054	1.002
17	259355	50.441055546054	1.002
17	259836	50.471055546054	1.002
17	260001	50.501055546054	1.002
17	260011	50.531055546054	1.002
17	260375	50.561055546054	1.002
17	260570	50.591055546054	1.002
17	260624	50.621055546054	1.002
17	260640	50.651055546054	1.002
17	261136	50.681055546054	1.002
17	261227	50.711055546054	1.002
17	261237	50.741055546054	1.002
17	261691	50.771055546054	1.002
17	261856	50.801055546054	1.002
17	261866	50.831055546054	1.002
17	262230	50.861055546054	1.002
17	262425	50.891055546054	1.002
17	262479	50.921055546054	1.002
17	262495	50.951055546054	1.002
17	262985	50.981055546054	1.002
17	263076	51.011055546054	1.002
17	263086	51.041055546054	1.002
17	263540	51.071055546054	1.002
17	263705	51.101055546054	1.002
17	263715	51.131055546054	1.002
17	264106	51.161055546054	1.002
17	264301	51.191055546054	1.002
17	264355	51.221055546054	1.002
17	264371	51.251055546054	1.002
17	264840	51.281055546054	1.002
17	264931	51.311055546054	1.002
17	264941	51.341055546054	1.002
17	265406	51.371055546054	1.002
17	265571	51.401055546054	1.002
17	265581	51.431055546054	1.002
17	265950	51.461055546054	1.002
17	266145	51.491055546054	1.002
17	266199	51.521055546054	1.002
17	266215	51.551055546054	1.002
17	266689	51.581055546054	1.002
17	266780	51.611055546054	1.002
17	266790	51.641055546054	1.002
17	267239	51.671055546054	1.002
17	267404	51.701055546054	1.002
17	267414	51.731055546054	1.002
17	267799	51.761055546054	1.002
17	267994	51.791055546054	1.002
17	268048	51.821055546054	1.002
17	268064	51.851055546054	1.002
17	268533	51.881055546054	1.002
17	268624	51.911055546054	1.002
17	268634	51.941055546054	1.002
17	269099	51.971055546054	1.002
17	269264	52.001055546054	1.002
17	269274	52.031055546054	1.002
17	269638	52.061055546054	1.002
17	269833	52.091055546054	1.002
17	269887	52.121055546054	1.002
17	269903	52.151055546054	1.002
17	270388	52.181055546054	1.002
17	270479	52.211055546054	1.002
17	270489	52.241055546054	1.002
17	270938	52.271055546054	1.002
17	271103	52.301055546054	1.002
17	271113	52.331055546054	1.002
17	271493	52.361055546054	1.002
17	271688	52.391055546054	1.002
17	271742	52.421055546054	1.002
17	271758	52.451055546054	1.002
17	272227	52.481055546054	1.002
17	272318	52.511055546054	1.002
17	272328	52.541055546054	1.002
17	272777	52.571055546054	1.002
17	272942	52.601055546054	1.002
17	272952	52.631055546054	1.002
17	273327	52.661055546054	1.002
17	273522	52.691055546054	1.002
17	273576	52.721055546054	1.002
17	273592	52.751055546054	1.002
17	274050	52.781055546054	1.002
17	274141	52.811055546054	1.002
17	274151	52.841055546054	1.002
17	274605	52.871055546054	1.002
17	274770	52.901055546054	1.002
17	274780	52.931055546054	1.002
17	275155	52.961055546054	1.002
17	275350	52.991055546054	1.002
17	275404	53.021055546054	1.002
17	275420	53.051055546054	1.002
17	275900	53.081055546054	1.002
17	275991	53.111055546054	1.002
17	276001	53.141055546054	1.002
17	276439	53.171055546054	1.002
17	276604	53.201055546054	1.002
17	276614	53.231055546054	1.002
17	276989	53.261055546054	1.002
17	277184	53.291055546054	1.002
17	277238	53.321055546054	1.002
17	277254	53.351055546054	1.002
17	277755	53.381055546054	1.002
17	277846	53.411055546054	1.002
17	277856	53.441055546054	1.002
17	278321	53.471055546054	1.002
17	278486	53.501055546054	1.002
17	278496	53.531055546054	1.002
17	278876	53.561055546054	1.002
17	279071	53.591055546054	1.002
17	279125	53.621055546054	1.002
17	279141	53.651055546054	1.002
17	279610	53.681055546054	1.002
17	279701	53.711055546054	1.002
17	279711	53.741055546054	1.002
17	280160	53.771055546054	1.002
17	280325	53.801055546054	1.002
17	280335	53.831055546054	1.002
17	280704	53.861055546054	1.002
17	280899	53.891055546054	1.002
17	280953	53.921055546054	1.002
17	280969	53.951055546054	1.002
17	281443	53.981055546054	1.002
17	281534	54.011055546054	1.002
17	281544	54.041055546054	1.002
17	281998	54.071055546054	1.002
17	282163	54.101055546054	1.002
17	282173	54.131055546054	1.002
17	282537	54.161055546054	1.002
17	282732	54.191055546054	1.002
17	282786	54.221055546054	1.002
17	282802	54.251055546054	1.002
17	283282	54.281055546054	1.002
17	283373	54.311055546054	1.002
17	283383	54.341055546054	1.002
17	283810	54.371055546054	1.002
17	283975	54.401055546054	1.002
17	283985	54.431055546054	1.002
17	284338	54.461055546054	1.002
17	284533	54.491055546054	1.002
17	284587	54.521055546054	1.002
17	284603	54.551055546054	1.002
17	285077	54.581055546054	1.002
17	285168	54.611055546054	1.002
17	285178	54.641055546054	1.002
17	285632	54.671055546054	1.002
17	285797	54.701055546054	1.002
17	285807	54.731055546054	1.002
17	286181	54.761055546054	1.002
17	286376	54.791055546054	1.002
17	286430	54.821055546054	1.002
17	286446	54.851055546054	1.002
17	286920	54.881055546054	1.002
17	287011	54.911055546054	1.002
17	287021	54.941055546054	1.002
17	287470	54.971055546054	1.002
17	287635	55.001055546054	1.002
17	287645	55.031055546054	1.002
17	288009	55.061055546054	1.002
17	288204	55.091055546054	1.002
17	288258	55.121055546054	1.002
17	288274	55.151055546054	1.002
17	288732	55.181055546054	1.002
17	288823	55.211055546054	1.002
17	288833	55.241055546054	1.002
17	289298	55.271055546054	1.002
17	289463	55.301055546054	1.002
17	289473	55.331055546054	1.002
17	289853	55.361055546054	1.002
17	290048	55.391055546054	1.002
17	290102	55.421055546054	1.002
17	290118	55.451055546054	1.002
17	290614	55.481055546054	1.002
17	290705	55.511055546054	1.002
17	290715	55.541055546054	1.002
17	291169	55.571055546054	1.002
17	291334	55.601055546054	1.002
17	291344	55.631055546054	1.002
17	291724	55.661055546054	1.002
17	291919	55.691055546054	1.002
17	291973	55.721055546054	1.002
17	291989	55.751055546054	1.002
17	292447	55.781055546054	1.002
17	292538	55.811055546054	1.002
17	292548	55.841055546054	1.002
17	292997	55.871055546054	1.002
17	293162	55.901055546054	1.002
17	293172	55.931055546054	1.002
17	293547	55.961055546054	1.002
17	293742	55.991055546054	1.002
17	293796	56.021055546054	1.002
17	293812	56.051055546054	1.002
17	294286	56.081055546054	1.002
17	294377	56.111055546054	1.002
17	294387	56.141055546054	1.002
17	294825	56.171055546054	1.002
17	294990	56.201055546054	1.002
17	295000	56.231055546054	1.002
17	295364	56.261055546054	1.002
17	295559	56.291055546054	1.002
17	295613	56.321055546054	1.002
17	295629	56.351055546054	1.002
17	296093	56.381055546054	1.002
17	296184	56.411055546054	1.002
17	296194	56.441055546054	1.002
17	296648	56.471055546054	1.002
17	296813	56.501055546054	1.002
17	296823	56.531055546054	1.002
17	297176	56.561055546054	1.002
17	297371	56.591055546054	1.002
17	297425	56.621055546054	1.002
17	297441	56.651055546054	1.002
17	297915	56.681055546054	1.002
17	298006	56.711055546054	1.002
17	298016	56.741055546054	1.002
17	298459	56.771055546054	1.002
17	298624	56.801055546054	1.002
17	298634	56.831055546054	1.002
17	299014	56.861055546054	1.002
17	299209	56.891055546054	1.002
17	299263	56.921055546054	1.002
17	299279	56.951055546054	1.002
17	299743	56.981055546054	1.002
17	299834	57.011055546054	1.002
17	299844	57.041055546054	1.002
17	300309	57.071055546054	1.002
17	300474	57.101055546054	1.002
17	300484	57.131055546054	1.002
17	300859	57.161055546054	1.002
17	301054	57.191055546054	1.002
17	301108	57.221055546054	1.002
17	301124	57.251055546054	1.002
17	301593	57.281055546054	1.002
17	301684	57.311055546054	1.002
17	301694	57.341055546054	1.002
17	302143	57.371055546054	1.002
17	302308	57.401055546054	1.002
17	302318	57.431055546054	1.002
17	302682	57.461055546054	1.002
17	302877	57.491055546054	1.002
17	302931	57.521055546054	1.002
17	302947	57.551055546054	1.002
17	303411	57.581055546054	1.002
17	303502	57.611055546054	1.002
17	303512	57.641055546054	1.002
17	303982	57.671055546054	1.002
17	304147	57.701055546054	1.002
17	304157	57.731055546054	1.002
17	304521	57.761055546054	1.002
17	304716	57.791055546054	1.002
17	304770	57.821055546054	1.002
17	304786	57.851055546054	1.002
17	305255	57.881055546054	1.002
17	305346	57.911055546054	1.002
17	305356	57.941055546054	1.002
17	305794	57.971055546054	1.002
17	305959	58.001055546054	1.002
17	305969	58.031055546054	1.002
17	306349	58.061055546054	1.002
17	306544	58.091055546054	1.002
17	306598	58.121055546054	1.002
17	306614	58.151055546054	1.002
17	307094	58.181055546054	1.002
17	307185	58.211055546054	1.002
17	307195	58.241055546054	1.002
17	307644	58.271055546054	1.002
17	307809	58.301055546054	1.002
17	307819	58.331055546054	1.002
17	308194	58.361055546054	1.002
17	308389	58.391055546054	1.002
17	308443	58.421055546054	1.002
17	308459	58.451055546054	1.002
17	308933	58.481055546054	1.002
17	309024	58.511055546054	1.002
17	309034	58.541055546054	1.002
17	309499	58.571055546054	1.002
17	309664	58.601055546054	1.002
17	309674	58.631055546054	1.002
17	310038	58.661055546054	1.002
17	310233	58.691055546054	1.002
17	310287	58.721055546054	1.002
17	310303	58.751055546054	1.002
17	310788	58.781055546054	1.002
17	310879	58.811055546054	1.002
17	310889	58.841055546054	1.002
17	311343	58.871055546054	1.002
17	311508	58.901055546054	1.002
17	311518	58.931055546054	1.002
17	311877	58.961055546054	1.002
17	312072	58.991055546054	1.002
17	312126	59.021055546054	1.002
17	312142	59.051055546054	1.002
17	312606	59.081055546054	1.002
17	312697	59.111055546054	1.002
17	312707	59.141055546054	1.002
17	313156	59.171055546054	1.002
17	313321	59.201055546054	1.002
17	313331	59.231055546054	1.002
17	313706	59.261055546054	1.002
17	313901	59.291055546054	1.002
17	313955	59.321055546054	1.002
17	313971	59.351055546054	1.002
17	314456	59.381055546054	1.002
17	314547	59.411055546054	1.002
17	314557	59.441055546054	1.002
17	315022	59.471055546054	1.002
17	315187	59.501055546054	1.002
17	315197	59.531055546054	1.002
17	315550	59.561055546054	1.002
17	315745	59.591055546054	1.002
17	315799	59.621055546054	1.002
17	315815	59.651055546054	1.002
17	316268	59.681055546054	1.002
17	316359	59.711055546054	1.002
17	316369	59.741055546054	1.002
17	316818	59.771055546054	1.002
17	316983	59.801055546054	1.002
17	316993	59.831055546054	1.002
17	317362	59.861055546054	1.002
17	317557	59.891055546054	1.002
17	317611	59.921055546054	1.002
17	317627	59.951055546054	1.002
17	318074	59.981055546054	1.002
17	318165	60.011055546054	1.002
17	318175	60.041055546054	1.002
17	318629	60.071055546054	1.002
17	318794	60.101055546054	1.002
17	318804	60.131055546054	1.002
17	319162	60.161055546054	1.002
17	319357	60.191055546054	1.002
17	319411	60.221055546054	1.002
17	319427	60.251055546054	1.002
17	319912	60.281055546054	1.002
17	320003	60.311055546054	1.002
17	320013	60.341055546054	1.002
17	320478	60.371055546054	1.002
17	320643	60.401055546054	1.002
17	320653	60.431055546054	1.002
17	321038	60.461055546054	1.002
17	321233	60.491055546054	1.002
17	321287	60.521055546054	1.002
17	321303	60.551055546054	1.002
17	321793	60.581055546054	1.002
17	321884	60.611055546054	1.002
17	321894	60.641055546054	1.002
17	322359	60.671055546054	1.002
17	322524	60.701055546054	1.002
17	322534	60.731055546054	1.002
17	322909	60.761055546054	1.002
17	323104	60.791055546054	1.002
17	323158	60.821055546054	1.002
17	323174	60.851055546054	1.002
17	323643	60.881055546054	1.002
17	323734	60.911055546054	1.002
17	323744	60.941055546054	1.002
17	324198	60.971055546054	1.002
17	324363	61.001055546054	1.002
17	324373	61.031055546054	1.002
17	324748	61.061055546054	1.002
17	324943	61.091055546054	1.002
17	324997	61.121055546054	1.002
17	325013	61.151055546054	1.002
17	325482	61.181055546054	1.002
17	325573	61.211055546054	1.002
17	325583	61.241055546054	1.002
17	326064	61.271055546054	1.002
17	326229	61.301055546054	1.002
17	326239	61.331055546054	1.002
17	326603	61.361055546054	1.002
17	326798	61.391055546054	1.002
17	326852	61.421055546054	1.002
17	326868	61.451055546054	1.002
17	327342	61.481055546054	1.002
17	327433	61.511055546054	1.002
17	327443	61.541055546054	1.002
17	327913	61.571055546054	1.002
16	12	0.251055546054	1
16	27	0.281055546054	2
16	45	0.311055546054	3
16	47	0.341055546054	4
16	77	0.371055546054	5
16	95	0.401055546054	6
16	97	0.431055546054	7
16	127	0.461055546054	8
16	142	0.491055546054	9
16	160	0.521055546054	10
16	164	0.551055546054	11
16	192	0.581055546054	12
16	210	0.611055546054	13
16	212	0.641055546054	14
16	242	0.671055546054	15
16	260	0.701055546054	16
16	262	0.731055546054	17
16	292	0.761055546054	18
16	307	0.791055546054	19
16	325	0.821055546054	20
16	329	0.851055546054	21
16	357	0.881055546054	22
16	375	0.911055546054	23
16	377	0.941055546054	24
16	407	0.971055546054	25
16	425	1.001055546054	26
16	427	1.031055546054	27
16	457	1.061055546054	28
16	472	1.091055546054	29
16	490	1.121055546054	30
16	494	1.151055546054	31
16	522	1.181055546054	32
16	540	1.211055546054	33
16	542	1.241055546054	34
16	572	1.271055546054	35
16	590	1.301055546054	36
16	592	1.331055546054	37
16	622	1.361055546054	38
16	637	1.391055546054	39
16	655	1.421055546054	40
16	659	1.451055546054	41
16	687	1.481055546054	42
16	705	1.511055546054	43
16	707	1.541055546054	44
16	737	1.571055546054	45
16	755	1.601055546054	46
16	757	1.631055546054	47
16	787	1.661055546054	48
16	802	1.691055546054	49
16	820	1.721055546054	50
16	824	1.751055546054	51
16	852	1.781055546054	52
16	870	1.811055546054	53
16	872	1.841055546054	54
16	902	1.871055546054	55
16	920	1.901055546054	56
16	922	1.931055546054	57
16	952	1.961055546054	58
16	967	1.991055546054	59
16	985	2.021055546054	60
16	989	2.051055546054	61
16	1017	2.081055546054	62
16	1035	2.111055546054	63
16	1037	2.141055546054	64
16	1067	2.171055546054	65
16	1085	2.201055546054	66
16	1087	2.231055546054	67
16	1117	2.261055546054	68
16	1132	2.291055546054	69
16	1150	2.321055546054	70
16	1154	2.351055546054	71
16	1182	2.381055546054	72
16	1200	2.411055546054	73
16	1202	2.441055546054	74
16	1232	2.471055546054	75
16	1250	2.501055546054	76
16	1252	2.531055546054	77
16	1282	2.561055546054	78
16	1297	2.591055546054	79
16	1315	2.621055546054	80
16	1319	2.651055546054	81
16	1347	2.681055546054	82
16	1365	2.711055546054	83
16	1367	2.741055546054	84
16	1397	2.771055546054	85
16	1415	2.801055546054	86
16	1417	2.831055546054	87
16	1447	2.861055546054	88
16	1462	2.891055546054	89
16	1480	2.921055546054	90
16	1484	2.951055546054	91
16	1512	2.981055546054	92
16	1530	3.011055546054	93
16	1532	3.041055546054	94
16	1562	3.071055546054	95
16	1580	3.101055546054	96
16	1582	3.131055546054	97
16	1625	3.161055546054	98
16	1646	3.191055546054	99
16	1671	3.221055546054	100
16	1676	3.251055546054	101
16	1716	3.281055546054	102
16	1741	3.311055546054	103
16	1743	3.341055546054	104
16	1786	3.371055546054	105
16	1811	3.401055546054	106
16	1813	3.431055546054	107
16	1856	3.461055546054	108
16	1877	3.491055546054	109
16	1902	3.521055546054	110
16	1907	3.551055546054	111
16	1968	3.581055546054	113
16	2014	3.611055546054	115
16	2018	3.641055546054	117
16	2101	3.671055546054	119
16	2147	3.701055546054	121
16	2151	3.731055546054	123
16	2234	3.761055546054	125
16	2276	3.791055546054	127
16	2303	3.821055546054	129
16	2310	3.851055546054	131
16	2402	3.881055546054	133
16	2448	3.911055546054	135
16	2452	3.941055546054	137
16	2535	3.971055546054	139
16	2581	4.001055546054	141
16	2585	4.031055546054	143
16	2668	4.061055546054	145
16	2710	4.091055546054	147
16	2737	4.121055546054	149
16	2744	4.151055546054	151
16	2843	4.181055546054	153
16	2889	4.211055546054	155
16	2893	4.241055546054	157
16	2976	4.271055546054	159
16	3022	4.301055546054	161
16	3026	4.331055546054	163
16	3109	4.361055546054	165
16	3151	4.391055546054	167
16	3178	4.421055546054	169
16	3185	4.451055546054	171
16	3277	4.481055546054	173
16	3323	4.511055546054	175
16	3327	4.541055546054	177
16	3410	4.571055546054	179
16	3456	4.601055546054	181
16	3460	4.631055546054	183
16	3543	4.661055546054	185
16	3585	4.691055546054	187
16	3612	4.721055546054	189
16	3619	4.751055546054	191
16	3711	4.781055546054	193
16	3757	4.811055546054	195
16	3761	4.841055546054	197
16	3844	4.871055546054	199
16	3890	4.901055546054	201
16	3894	4.931055546054	203
16	3970	4.961055546054	205
16	4012	4.991055546054	207
16	4039	5.021055546054	209
16	4046	5.051055546054	211
16	4145	5.081055546054	213
16	4191	5.111055546054	215
16	4195	5.141055546054	217
16	4278	5.171055546054	219
16	4324	5.201055546054	221
16	4328	5.231055546054	223
16	4404	5.261055546054	225
16	4446	5.291055546054	227
16	4473	5.321055546054	229
16	4480	5.351055546054	231
16	4579	5.381055546054	233
16	4625	5.411055546054	235
16	4629	5.441055546054	237
16	4712	5.471055546054	239
16	4758	5.501055546054	241
16	4762	5.531055546054	243
16	4838	5.561055546054	245
16	4880	5.591055546054	247
16	4907	5.621055546054	249
16	4914	5.651055546054	251
16	5013	5.681055546054	253
16	5059	5.711055546054	255
16	5063	5.741055546054	257
16	5146	5.771055546054	259
16	5192	5.801055546054	261
16	5196	5.831055546054	263
16	5279	5.861055546054	265
16	5321	5.891055546054	267
16	5348	5.921055546054	269
16	5355	5.951055546054	271
16	5454	5.981055546054	273
16	5500	6.011055546054	275
16	5504	6.041055546054	277
16	5587	6.071055546054	279
16	5633	6.101055546054	281
16	5637	6.131055546054	283
16	5745	6.161055546054	285
16	5799	6.191055546054	287
16	5833	6.221055546054	289
16	5841	6.251055546054	291
16	5960	6.281055546054	293
16	6019	6.311055546054	295
16	6023	6.341055546054	297
16	6131	6.371055546054	299
16	6190	6.401055546054	301
16	6194	6.431055546054	303
16	6292	6.461055546054	305
16	6346	6.491055546054	307
16	6380	6.521055546054	309
16	6388	6.551055546054	311
16	6507	6.581055546054	313
16	6566	6.611055546054	315
16	6570	6.641055546054	317
16	6678	6.671055546054	319
16	6737	6.701055546054	321
16	6741	6.731055546054	323
16	6849	6.761055546054	325
16	6903	6.791055546054	327
16	6937	6.821055546054	329
16	6945	6.851055546054	331
16	7064	6.881055546054	333
16	7123	6.911055546054	335
16	7129	6.941055546054	338
16	7289	6.971055546054	341
16	7350	7.001055546054	344
16	7356	7.031055546054	347
16	7524	7.061055546054	350
16	7605	7.091055546054	353
16	7641	7.121055546054	356
16	7651	7.151055546054	359
16	7847	7.181055546054	362
16	7908	7.211055546054	365
16	7914	7.241055546054	368
16	8079	7.271055546054	371
16	8140	7.301055546054	374
16	8146	7.331055546054	377
16	8321	7.361055546054	380
16	8402	7.391055546054	383
16	8438	7.421055546054	386
16	8448	7.451055546054	389
16	8644	7.481055546054	392
16	8705	7.511055546054	395
16	8711	7.541055546054	398
16	8896	7.571055546054	401
16	8957	7.601055546054	404
16	8963	7.631055546054	407
16	9138	7.661055546054	410
16	9219	7.691055546054	413
16	9255	7.721055546054	416
16	9265	7.751055546054	419
16	9451	7.781055546054	422
16	9512	7.811055546054	425
16	9518	7.841055546054	428
16	9693	7.871055546054	431
16	9754	7.901055546054	434
16	9760	7.931055546054	437
16	9935	7.961055546054	440
16	10016	7.991055546054	443
16	10052	8.021055546054	446
16	10062	8.051055546054	449
16	10258	8.081055546054	452
16	10319	8.111055546054	455
16	10325	8.141055546054	458
16	10500	8.171055546054	461
16	10561	8.201055546054	464
16	10567	8.231055546054	467
16	10752	8.261055546054	470
16	10833	8.291055546054	473
16	10869	8.321055546054	476
16	10879	8.351055546054	479
16	11075	8.381055546054	482
16	11136	8.411055546054	485
16	11142	8.441055546054	488
16	11327	8.471055546054	491
16	11388	8.501055546054	494
16	11394	8.531055546054	497
16	11569	8.561055546054	500
16	11650	8.591055546054	503
16	11686	8.621055546054	506
16	11696	8.651055546054	509
16	11892	8.681055546054	512
16	11953	8.711055546054	515
16	11959	8.741055546054	518
16	12134	8.771055546054	521
16	12195	8.801055546054	524
16	12201	8.831055546054	527
16	12376	8.861055546054	530
16	12457	8.891055546054	533
16	12493	8.921055546054	536
16	12503	8.951055546054	539
16	12699	8.981055546054	542
16	12760	9.011055546054	545
16	12766	9.041055546054	548
16	12951	9.071055546054	551
16	13012	9.101055546054	554
16	13018	9.131055546054	557
16	13221	9.161055546054	560
16	13320	9.191055546054	563
16	13363	9.221055546054	566
16	13374	9.251055546054	569
16	13606	9.281055546054	572
16	13680	9.311055546054	575
16	13686	9.341055546054	578
16	13947	9.371055546054	582
16	14054	9.401055546054	586
16	14062	9.431055546054	590
16	14328	9.461055546054	594
16	14460	9.491055546054	598
16	14505	9.521055546054	602
16	14518	9.551055546054	606
16	14833	9.581055546054	610
16	14909	9.611055546054	614
16	14917	9.641055546054	618
16	15227	9.671055546054	622
16	15334	9.701055546054	626
16	15342	9.731055546054	630
16	15609	9.761055546054	634
16	15741	9.791055546054	638
16	15786	9.821055546054	642
16	15799	9.851055546054	646
16	16109	9.881055546054	650
16	16185	9.911055546054	654
16	16193	9.941055546054	658
16	16503	9.971055546054	662
16	16610	10.001055546054	666
16	16618	10.031055546054	670
16	16884	10.061055546054	674
16	17016	10.091055546054	678
16	17061	10.121055546054	682
16	17074	10.151055546054	686
16	17401	10.181055546054	690
16	17477	10.211055546054	694
16	17485	10.241055546054	698
16	17795	10.271055546054	702
16	17902	10.301055546054	706
16	17910	10.331055546054	710
16	18163	10.361055546054	714
16	18295	10.391055546054	718
16	18340	10.421055546054	722
16	18353	10.451055546054	726
16	18667	10.481055546054	730
16	18743	10.511055546054	734
16	18751	10.541055546054	738
16	19048	10.571055546054	742
16	19155	10.601055546054	746
16	19163	10.631055546054	750
16	19420	10.661055546054	754
16	19552	10.691055546054	758
16	19597	10.721055546054	762
16	19610	10.751055546054	766
16	19924	10.781055546054	770
16	20000	10.811055546054	774
16	20008	10.841055546054	778
16	20309	10.871055546054	782
16	20416	10.901055546054	786
16	20424	10.931055546054	790
16	20690	10.961055546054	794
16	20822	10.991055546054	798
16	20867	11.021055546054	802
16	20880	11.051055546054	806
16	21194	11.081055546054	810
[...]
14	218366	43.75014973911	0.001
14	218927	43.80014973911	0.002
14	218950	43.85014973911	0.001
14	219560	43.90014973911	0.002
14	219582	43.95014973911	0.001
14	220203	44.00014973911	0.002
14	220226	44.05014973911	0.001
14	220798	44.10014973911	0.002
14	220821	44.15014973911	0.001
14	221426	44.20014973911	0.002
14	221448	44.25014973911	0.001
14	222036	44.30014973911	0.002
14	222059	44.35014973911	0.001
14	222615	44.40014973911	0.002
14	222638	44.45014973911	0.001
14	223248	44.50014973911	0.002
14	223270	44.55014973911	0.001
14	223875	44.60014973911	0.002
14	223898	44.65014973911	0.001
14	224454	44.70014973911	0.002
14	224477	44.75014973911	0.001
14	225087	44.80014973911	0.002
14	225109	44.85014973911	0.001
14	225703	44.90014973911	0.002
14	225726	44.95014973911	0.001
14	226282	45.00014973911	0.002
14	226305	45.05014973911	0.001
14	226915	45.10014973911	0.002
14	226937	45.15014973911	0.001
14	227536	45.20014973911	0.002
14	227559	45.25014973911	0.001
14	228109	45.30014973911	0.002
14	228132	45.35014973911	0.001
14	228726	45.40014973911	0.002
14	228748	45.45014973911	0.001
14	229342	45.50014973911	0.002
14	229365	45.55014973911	0.001
14	229910	45.60014973911	0.002
14	229933	45.65014973911	0.001
14	230527	45.70014973911	0.002
14	230549	45.75014973911	0.001
14	231143	45.80014973911	0.002
14	231166	45.85014973911	0.001
14	231722	45.90014973911	0.002
14	231745	45.95014973911	0.001
14	232355	46.00014973911	0.002
14	232377	46.05014973911	0.001
14	232955	46.10014973911	0.002
14	232978	46.15014973911	0.001
14	233528	46.20014973911	0.002
14	233551	46.25014973911	0.001
14	234145	46.30014973911	0.002
14	234167	46.35014973911	0.001
14	234772	46.40014973911	0.002
14	234795	46.45014973911	0.001
14	235351	46.50014973911	0.002
14	235374	46.55014973911	0.001
14	235979	46.60014973911	0.002
14	236001	46.65014973911	0.001
14	236622	46.70014973911	0.002
14	236645	46.75014973911	0.001
14	237206	46.80014973911	0.002
14	237229	46.85014973911	0.001
14	237839	46.90014973911	0.002
14	237861	46.95014973911	0.001
14	238466	47.00014973911	0.002
14	238489	47.05014973911	0.001
14	239040	47.10014973911	0.002
14	239063	47.15014973911	0.001
14	239657	47.20014973911	0.002
14	239679	47.25014973911	0.001
14	240305	47.30014973911	0.002
14	240328	47.35014973911	0.001
14	240900	47.40014973911	0.002
14	240923	47.45014973911	0.001
14	241533	47.50014973911	0.002
14	241555	47.55014973911	0.001
14	242149	47.60014973911	0.002
14	242172	47.65014973911	0.001
14	242728	47.70014973911	0.002
14	242751	47.75014973911	0.001
14	243366	47.80014973911	0.002
14	243388	47.85014973911	0.001
14	243982	47.90014973911	0.002
14	244005	47.95014973911	0.001
14	244577	48.00014973911	0.002
14	244600	48.05014973911	0.001
14	245210	48.10014973911	0.002
14	245232	48.15014973911	0.001
14	245842	48.20014973911	0.002
14	245865	48.25014973911	0.001
14	246421	48.30014973911	0.002
14	246444	48.35014973911	0.001
14	247054	48.40014973911	0.002
14	247076	48.45014973911	0.001
14	247665	48.50014973911	0.002
14	247688	48.55014973911	0.001
14	248255	48.60014973911	0.002
14	248278	48.65014973911	0.001
14	248856	48.70014973911	0.002
14	248878	48.75014973911	0.001
14	249488	48.80014973911	0.002
14	249511	48.85014973911	0.001
14	250067	48.90014973911	0.002
14	250090	48.95014973911	0.001
14	250695	49.00014973911	0.002
14	250717	49.05014973911	0.001
14	251338	49.10014973911	0.002
14	251361	49.15014973911	0.001
14	251938	49.20014973911	0.002
14	251961	49.25014973911	0.001
14	252598	49.30014973911	0.002
14	252620	49.35014973911	0.001
14	253219	49.40014973911	0.002
14	253242	49.45014973911	0.001
14	253793	49.50014973911	0.002
14	253816	49.55014973911	0.001
14	254421	49.60014973911	0.002
14	254443	49.65014973911	0.001
14	255053	49.70014973911	0.002
14	255076	49.75014973911	0.001
14	255659	49.80014973911	0.002
14	255682	49.85014973911	0.001
14	256276	49.90014973911	0.002
14	256298	49.95014973911	0.001
14	256892	50.00014973911	0.002
14	256915	50.05014973911	0.001
14	257465	50.10014973911	0.002
14	257488	50.15014973911	0.001
14	258098	50.20014973911	0.002
14	258120	50.25014973911	0.001
14	258746	50.30014973911	0.002
14	258769	50.35014973911	0.001
14	259336	50.40014973911	0.002
14	259359	50.45014973911	0.001
14	259996	50.50014973911	0.002
14	260018	50.55014973911	0.001
14	260612	50.60014973911	0.002
14	260635	50.65014973911	0.001
14	261218	50.70014973911	0.002
14	261241	50.75014973911	0.001
14	261851	50.80014973911	0.002
14	261873	50.85014973911	0.001
14	262467	50.90014973911	0.002
14	262490	50.95014973911	0.001
14	263067	51.00014973911	0.002
14	263090	51.05014973911	0.001
14	263700	51.10014973911	0.002
14	263722	51.15014973911	0.001
14	264343	51.20014973911	0.002
14	264366	51.25014973911	0.001
14	264922	51.30014973911	0.002
14	264945	51.35014973911	0.001
14	265566	51.40014973911	0.002
14	265588	51.45014973911	0.001
14	266187	51.50014973911	0.002
14	266210	51.55014973911	0.001
14	266771	51.60014973911	0.002
14	266794	51.65014973911	0.001
14	267399	51.70014973911	0.002
14	267421	51.75014973911	0.001
14	268036	51.80014973911	0.002
14	268059	51.85014973911	0.001
14	268615	51.90014973911	0.002
14	268638	51.95014973911	0.001
14	269259	52.00014973911	0.002
14	269281	52.05014973911	0.001
14	269875	52.10014973911	0.002
14	269898	52.15014973911	0.001
14	270470	52.20014973911	0.002
14	270493	52.25014973911	0.001
14	271098	52.30014973911	0.002
14	271120	52.35014973911	0.001
14	271730	52.40014973911	0.002
14	271753	52.45014973911	0.001
14	272309	52.50014973911	0.002
14	272332	52.55014973911	0.001
14	272937	52.60014973911	0.002
14	272959	52.65014973911	0.001
14	273564	52.70014973911	0.002
14	273587	52.75014973911	0.001
14	274132	52.80014973911	0.002
14	274155	52.85014973911	0.001
14	274765	52.90014973911	0.002
14	274787	52.95014973911	0.001
14	275392	53.00014973911	0.002
14	275415	53.05014973911	0.001
14	275982	53.10014973911	0.002
14	276005	53.15014973911	0.001
14	276599	53.20014973911	0.002
14	276621	53.25014973911	0.001
14	277226	53.30014973911	0.002
14	277249	53.35014973911	0.001
14	277837	53.40014973911	0.002
14	277860	53.45014973911	0.001
14	278481	53.50014973911	0.002
14	278503	53.55014973911	0.001
14	279113	53.60014973911	0.002
14	279136	53.65014973911	0.001
14	279692	53.70014973911	0.002
14	279715	53.75014973911	0.001
14	280320	53.80014973911	0.002
14	280342	53.85014973911	0.001
14	280941	53.90014973911	0.002
14	280964	53.95014973911	0.001
14	281525	54.00014973911	0.002
14	281548	54.05014973911	0.001
14	282158	54.10014973911	0.002
14	282180	54.15014973911	0.001
14	282774	54.20014973911	0.002
14	282797	54.25014973911	0.001
14	283364	54.30014973911	0.002
14	283387	54.35014973911	0.001
14	283970	54.40014973911	0.002
14	283992	54.45014973911	0.001
14	284575	54.50014973911	0.002
14	284598	54.55014973911	0.001
14	285159	54.60014973911	0.002
14	285182	54.65014973911	0.001
14	285792	54.70014973911	0.002
14	285814	54.75014973911	0.001
14	286418	54.80014973911	0.002
14	286441	54.85014973911	0.001
14	287002	54.90014973911	0.002
14	287025	54.95014973911	0.001
14	287630	55.00014973911	0.002
14	287652	55.05014973911	0.001
14	288246	55.10014973911	0.002
14	288269	55.15014973911	0.001
14	288814	55.20014973911	0.002
14	288837	55.25014973911	0.001
14	289458	55.30014973911	0.002
14	289480	55.35014973911	0.001
14	290090	55.40014973911	0.002
14	290113	55.45014973911	0.001
14	290696	55.50014973911	0.002
14	290719	55.55014973911	0.001
14	291329	55.60014973911	0.002
14	291351	55.65014973911	0.001
14	291961	55.70014973911	0.002
14	291984	55.75014973911	0.001
14	292529	55.80014973911	0.002
14	292552	55.85014973911	0.001
14	293157	55.90014973911	0.002
14	293179	55.95014973911	0.001
14	293784	56.00014973911	0.002
14	293807	56.05014973911	0.001
14	294368	56.10014973911	0.002
14	294391	56.15014973911	0.001
14	294985	56.20014973911	0.002
14	295007	56.25014973911	0.001
14	295601	56.30014973911	0.002
14	295624	56.35014973911	0.001
14	296175	56.40014973911	0.002
14	296198	56.45014973911	0.001
14	296808	56.50014973911	0.002
14	296830	56.55014973911	0.001
14	297413	56.60014973911	0.002
14	297436	56.65014973911	0.001
14	297997	56.70014973911	0.002
14	298020	56.75014973911	0.001
14	298619	56.80014973911	0.002
14	298641	56.85014973911	0.001
14	299251	56.90014973911	0.002
14	299274	56.95014973911	0.001
14	299825	57.00014973911	0.002
14	299848	57.05014973911	0.001
14	300469	57.10014973911	0.002
14	300491	57.15014973911	0.001
14	301096	57.20014973911	0.002
14	301119	57.25014973911	0.001
14	301675	57.30014973911	0.002
14	301698	57.35014973911	0.001
14	302303	57.40014973911	0.002
14	302325	57.45014973911	0.001
14	302919	57.50014973911	0.002
14	302942	57.55014973911	0.001
14	303493	57.60014973911	0.002
14	303516	57.65014973911	0.001
14	304142	57.70014973911	0.002
14	304164	57.75014973911	0.001
14	304758	57.80014973911	0.002
14	304781	57.85014973911	0.001
14	305337	57.90014973911	0.002
14	305360	57.95014973911	0.001
14	305954	58.00014973911	0.002
14	305976	58.05014973911	0.001
14	306586	58.10014973911	0.002
14	306609	58.15014973911	0.001
14	307176	58.20014973911	0.002
14	307199	58.25014973911	0.001
14	307804	58.30014973911	0.002
14	307826	58.35014973911	0.001
14	308431	58.40014973911	0.002
14	308454	58.45014973911	0.001
14	309015	58.50014973911	0.002
14	309038	58.55014973911	0.001
14	309659	58.60014973911	0.002
14	309681	58.65014973911	0.001
14	310275	58.70014973911	0.002
14	310298	58.75014973911	0.001
14	310870	58.80014973911	0.002
14	310893	58.85014973911	0.001
14	311503	58.90014973911	0.002
14	311525	58.95014973911	0.001
14	312114	59.00014973911	0.002
14	312137	59.05014973911	0.001
14	312688	59.10014973911	0.002
14	312711	59.15014973911	0.001
14	313316	59.20014973911	0.002
14	313338	59.25014973911	0.001
14	313943	59.30014973911	0.002
14	313966	59.35014973911	0.001
14	314538	59.40014973911	0.002
14	314561	59.45014973911	0.001
14	315182	59.50014973911	0.002
14	315204	59.55014973911	0.001
14	315787	59.60014973911	0.002
14	315810	59.65014973911	0.001
14	316350	59.70014973911	0.002
14	316373	59.75014973911	0.001
14	316978	59.80014973911	0.002
14	317000	59.85014973911	0.001
14	317599	59.90014973911	0.002
14	317622	59.95014973911	0.001
14	318156	60.00014973911	0.002
14	318179	60.05014973911	0.001
14	318789	60.10014973911	0.002
14	318811	60.15014973911	0.001
14	319399	60.20014973911	0.002
14	319422	60.25014973911	0.001
14	319994	60.30014973911	0.002
14	320017	60.35014973911	0.001
14	320638	60.40014973911	0.002
14	320660	60.45014973911	0.001
14	321275	60.50014973911	0.002
14	321298	60.55014973911	0.001
14	321875	60.60014973911	0.002
14	321898	60.65014973911	0.001
14	322519	60.70014973911	0.002
14	322541	60.75014973911	0.001
14	323146	60.80014973911	0.002
14	323169	60.85014973911	0.001
14	323725	60.90014973911	0.002
14	323748	60.95014973911	0.001
14	324358	61.00014973911	0.002
14	324380	61.05014973911	0.001
14	324985	61.10014973911	0.002
14	325008	61.15014973911	0.001
14	325564	61.20014973911	0.002
14	325587	61.25014973911	0.001
14	326224	61.30014973911	0.002
14	326246	61.35014973911	0.001
14	326840	61.40014973911	0.002
14	326863	61.45014973911	0.001
14	327424	61.50014973911	0.002
14	327447	61.55014973911	0.001
14	328073	61.60014973911	0.002
14	328090	61.65014973911	0.001
14	328499	61.70014973911	0.002
14	328519	61.75014973911	0.001
14	328914	61.80014973911	0.002
14	328932	61.85014973911	0.001
14	329365	61.90014973911	0.002
14	329382	61.95014973911	0.001
14	329778	62.00014973911	0.002
14	329798	62.05014973911	0.001
14	330193	62.10014973911	0.002
14	330211	62.15014973911	0.001
14	330631	62.20014973911	0.002
14	330648	62.25014973911	0.001
14	331035	62.30014973911	0.002
14	331055	62.35014973911	0.001
14	331463	62.40014973911	0.002
14	331481	62.45014973911	0.001
14	331897	62.50014973911	0.002
14	331914	62.55014973911	0.001
14	332301	62.60014973911	0.002
14	332321	62.65014973911	0.001
14	332716	62.70014973911	0.002
14	332734	62.75014973911	0.001
14	333163	62.80014973911	0.002
14	333180	62.85014973911	0.001
14	333576	62.90014973911	0.002
14	333596	62.95014973911	0.001
14	333986	63.00014973911	0.002
14	334004	63.05014973911	0.001
14	334433	63.10014973911	0.002
14	334450	63.15014973911	0.001
14	334859	63.20014973911	0.002
14	334879	63.25014973911	0.001
14	335274	63.30014973911	0.002
14	335292	63.35014973911	0.001
14	335734	63.40014973911	0.002
14	335751	63.45014973911	0.001
14	336147	63.50014973911	0.002
14	336167	63.55014973911	0.001
14	336553	63.60014973911	0.002
14	336571	63.65014973911	0.001
14	336991	63.70014973911	0.002
14	337008	63.75014973911	0.001
14	337408	63.80014973911	0.002
14	337428	63.85014973911	0.001
14	337827	63.90014973911	0.002
14	337845	63.95014973911	0.001
14	338265	64.00014973911	0.002
14	338282	64.05014973911	0.001
14	338682	64.10014973911	0.002
14	338702	64.15014973911	0.001
14	339123	64.20014973911	0.002
14	339141	64.25014973911	0.001
14	339583	64.30014973911	0.002
14	339600	64.35014973911	0.001
14	340009	64.40014973911	0.002
14	340029	64.45014973911	0.001
14	340411	64.50014973911	0.002
14	340429	64.55014973911	0.001
14	340857	64.60014973911	0.002
14	340869	64.65014973911	0.001
14	341125	64.70014973911	0.002
14	341140	64.75014973911	0.001
14	341361	64.80014973911	0.002
14	341376	64.85014973911	0.001
14	341657	64.90014973911	0.002
14	341669	64.95014973911	0.001
14	341935	65.00014973911	0.002
14	341950	65.05014973911	0.001
14	342178	65.10014973911	0.002
14	342193	65.15014973911	0.001
14	342474	65.20014973911	0.002
14	342486	65.25014973911	0.001
14	342752	65.30014973911	0.002
14	342767	65.35014973911	0.001
14	342995	65.40014973911	0.002
14	343010	65.45014973911	0.001
14	343291	65.50014973911	0.002
14	343303	65.55014973911	0.001
14	343559	65.60014973911	0.002
14	343574	65.65014973911	0.001
14	343802	65.70014973911	0.002
14	343817	65.75014973911	0.001
14	344098	65.80014973911	0.002
14	344110	65.85014973911	0.001
14	344366	65.90014973911	0.002
14	344381	65.95014973911	0.001
14	344609	66.00014973911	0.002
14	344624	66.05014973911	0.001
14	344895	66.10014973911	0.002
14	344907	66.15014973911	0.001
14	345173	66.20014973911	0.002
14	345188	66.25014973911	0.001
14	345406	66.30014973911	0.002
14	345421	66.35014973911	0.001
14	345712	66.40014973911	0.002
14	345724	66.45014973911	0.001
14	345990	66.50014973911	0.002
14	346005	66.55014973911	0.001
14	346233	66.60014973911	0.002
14	346248	66.65014973911	0.001
14	346522	66.70014973911	0.002
14	346534	66.75014973911	0.001
14	346790	66.80014973911	0.002
14	346805	66.85014973911	0.001
14	347043	66.90014973911	0.002
14	347058	66.95014973911	0.001
14	347332	67.00014973911	0.002
14	347344	67.05014973911	0.001
14	347610	67.10014973911	0.002
14	347625	67.15014973911	0.001
14	347846	67.20014973911	0.002
14	347861	67.25014973911	0.001
14	348142	67.30014973911	0.002
14	348154	67.35014973911	0.001
14	348420	67.40014973911	0.002
14	348435	67.45014973911	0.001
14	348653	67.50014973911	0.002
14	348663	67.55014973911	0.001
14	348820	67.60014973911	0.002
14	348828	67.65014973911	0.001
14	348953	67.70014973911	0.002
14	348964	67.75014973911	0.001
14	349087	67.80014973911	0.002
14	349097	67.85014973911	0.001
14	349261	67.90014973911	0.002
14	349269	67.95014973911	0.001
14	349394	68.00014973911	0.002
14	349405	68.05014973911	0.001
14	349528	68.10014973911	0.002
14	349538	68.15014973911	0.001
14	349695	68.20014973911	0.002
14	349703	68.25014973911	0.001
14	349828	68.30014973911	0.002
14	349839	68.35014973911	0.001
14	349962	68.40014973911	0.002
14	349972	68.45014973911	0.001
14	350136	68.50014973911	0.002
14	350144	68.55014973911	0.001
14	350269	68.60014973911	0.002
14	350280	68.65014973911	0.001
14	350403	68.70014973911	0.002
14	350413	68.75014973911	0.001
14	350570	68.80014973911	0.002
14	350578	68.85014973911	0.001
14	350703	68.90014973911	0.002
14	350714	68.95014973911	0.001
14	350837	69.00014973911	0.002
14	350847	69.05014973911	0.001
14	351004	69.10014973911	0.002
14	351012	69.15014973911	0.001
14	351137	69.20014973911	0.002
14	351148	69.25014973911	0.001
14	351271	69.30014973911	0.002
14	351281	69.35014973911	0.001
14	351445	69.40014973911	0.002
14	351453	69.45014973911	0.001
14	351578	69.50014973911	0.002
14	351589	69.55014973911	0.001
14	351705	69.60014973911	0.002
14	351715	69.65014973911	0.001
14	351879	69.70014973911	0.002
14	351887	69.75014973911	0.001
14	352012	69.80014973911	0.002
14	352023	69.85014973911	0.001
14	352139	69.90014973911	0.002
14	352149	69.95014973911	0.001
14	352313	70.00014973911	0.002
14	352321	70.05014973911	0.001
14	352446	70.10014973911	0.002
14	352457	70.15014973911	0.001
14	352580	70.20014973911	0.002
14	352590	70.25014973911	0.001
14	352754	70.30014973911	0.002
14	352762	70.35014973911	0.001
14	352887	70.40014973911	0.002
14	352898	70.45014973911	0.001
14	353014	70.50014973911	0.002
14	353024	70.55014973911	0.001
14	353181	70.60014973911	0.002
14	353189	70.65014973911	0.001
14	353314	70.70014973911	0.002
14	353320	70.75014973911	0.001
14	353364	70.80014973911	0.002
14	353370	70.85014973911	0.001
14	353429	70.90014973911	0.002
14	353433	70.95014973911	0.001
14	353479	71.00014973911	0.002
14	353485	71.05014973911	0.001
14	353529	71.10014973911	0.002
14	353535	71.15014973911	0.001
14	353594	71.20014973911	0.002
14	353598	71.25014973911	0.001
14	353644	71.30014973911	0.002
14	353650	71.35014973911	0.001
14	353694	71.40014973911	0.002
14	353700	71.45014973911	0.001
14	353759	71.50014973911	0.002
14	353763	71.55014973911	0.001
14	353809	71.60014973911	0.002
14	353815	71.65014973911	0.001
14	353859	71.70014973911	0.002
14	353865	71.75014973911	0.001
14	353924	71.80014973911	0.002
14	353928	71.85014973911	0.001
14	353974	71.90014973911	0.002
14	353980	71.95014973911	0.001
14	354024	72.00014973911	0.002
14	354030	72.05014973911	0.001
14	354089	72.10014973911	0.002
14	354093	72.15014973911	0.001
14	354139	72.20014973911	0.002
14	354145	72.25014973911	0.001
14	354189	72.30014973911	0.002
14	354195	72.35014973911	0.001
14	354254	72.40014973911	0.002
14	354258	72.45014973911	0.001
14	354304	72.50014973911	0.002
14	354310	72.55014973911	0.001
14	354354	72.60014973911	0.002
14	354360	72.65014973911	0.001
14	354419	72.70014973911	0.002
14	354423	72.75014973911	0.001
14	354469	72.80014973911	0.002
14	354475	72.85014973911	0.001
14	354519	72.90014973911	0.002
14	354525	72.95014973911	0.001
14	354584	73.00014973911	0.002
14	354588	73.05014973911	0.001
14	354634	73.10014973911	0.002
14	354640	73.15014973911	0.001
14	354684	73.20014973911	0.002
14	354690	73.25014973911	0.001
14	354749	73.30014973911	0.002
14	354753	73.35014973911	0.001
14	354799	73.40014973911	0.002
14	354805	73.45014973911	0.001
14	354849	73.50014973911	0.002
14	354855	73.55014973911	0.001
14	354914	73.60014973911	0.002
14	354918	73.65014973911	0.001
14	354963	73.70014973911	0.002
14	354964	73.75014973911	0.001
14	354965	73.80014973911	0.002
14	354966	73.85014973911	0.001
14	354967	73.90014973911	0.002
14	354968	73.95014973911	0.001
14	354969	74.00014973911	0.002
14	354970	74.05014973911	0.001
14	354971	74.10014973911	0.002
14	354972	74.15014973911	0.001
14	354973	74.20014973911	0.002
14	354974	74.25014973911	0.001
14	354975	74.30014973911	0.002
14	354976	74.35014973911	0.001
14	354977	74.40014973911	0.002
14	354978	74.45014973911	0.001
14	354979	74.50014973911	0.002
14	354980	74.55014973911	0.001
14	354981	74.60014973911	0.002
14	354982	74.65014973911	0.001
14	354983	74.70014973911	0.002
14	354984	74.75014973911	0.001
14	354985	74.80014973911	0.002
14	354986	74.85014973911	0.001
14	354987	74.90014973911	0.002
14	354988	74.95014973911	0.001
14	354989	75.00014973911	0.002
14	354990	75.05014973911	0.001
14	354991	75.10014973911	0.002
14	354992	75.15014973911	0.001
14	354993	75.20014973911	0.002
14	354994	75.25014973911	0.001
14	354995	75.30014973911	0.002
14	354996	75.35014973911	0.001
14	354997	75.40014973911	0.002
14	354998	75.45014973911	0.001
14	354999	75.50014973911	0.002
14	355000	75.55014973911	0.001
14	355001	75.60014973911	0.002
14	355002	75.65014973911	0.001
14	355003	75.70014973911	0.002
14	355004	75.75014973911	0.001
14	355005	75.80014973911	0.002
14	355006	75.85014973911	0.001
14	355007	75.90014973911	0.002
14	355008	75.95014973911	0.001
