version 2
run VoIP-30ms_280B-0-20160923-14:12:05-14637
attr configname VoIP-30ms_280B
attr datetime 20160923-14:12:05
attr experiment VoIP-30ms_280B
attr inifile omnetpp.ini
attr iterationvars ""
attr iterationvars2 $repetition=0
attr measurement ""
attr network SymScenerio
attr processid 14637
attr repetition 0
attr replication #0
attr resultdir results
attr runnumber 0
attr seedset 0
param **.coreDebug false
param **.debug false
param *.**.nic.mac1609_4.bitrate 18Mbps
param *.**.nic.mac1609_4.txPower 20mW
param *.**.nic.mac1609_4.useServiceChannel true
param *.**.nic.phy80211p.analogueModels "xmldoc(\"config.xml\")"
param *.**.nic.phy80211p.decider "xmldoc(\"config.xml\")"
param *.**.nic.phy80211p.sensitivity -89dBm
param *.**.nic.phy80211p.thermalNoise -110dBm
param *.**.nic.phy80211p.usePropagationDelay true
param *.**.nic.phy80211p.useThermalNoise true
param *.annotations.draw false
param *.connectionManager.alpha 2.0
param *.connectionManager.carrierFrequency "5.890e9 Hz"
param *.connectionManager.pMax 20mW
param *.connectionManager.sat -89dBm
param *.connectionManager.sendDirect true
param *.manager.autoShutdown true
param *.manager.host "\"localhost\""
param *.manager.launchConfig "xmldoc(\"map.launchd.xml\")"
param *.manager.margin 25
param *.manager.moduleDisplayString "\"\""
param *.manager.moduleName "\"node\""
param *.manager.moduleType "\"symulacja.veins.nodes.Car\""
param *.manager.port 9999
param *.manager.updateInterval 0.1s
param *.node[*].appl.beaconInterval 1s
param *.node[*].appl.beaconPriority 3
param *.node[*].appl.dataOnSch false
param *.node[*].appl.dataPriority 2
param *.node[*].appl.debug false
param *.node[*].appl.maxOffset 0.005s
param *.node[*].appl.sendBeacons false
param *.node[*].appl.sendData true
param *.node[*].appl.sendVoIP true
param *.node[*].appl.voipInterval 0.030s
param *.node[*].appl.voipLengthBits 2240bits
param *.node[*].appl.voipOnSch true
param *.node[*].appl.voipPriority 3
param *.node[*].applType "\"Sym11p\""
param *.node[*].veinsmobility.x 0
param *.node[*].veinsmobility.y 0
param *.node[*].veinsmobility.z 1.895
param *.node[*].veinsmobilityType "\"symulacja.veins.modules.mobility.traci.TraCIMobility\""
param *.playgroundSizeX 9000m
param *.playgroundSizeY 9000m
param *.playgroundSizeZ 50m
param *.rsu[*].appl.beaconInterval 1s
param *.rsu[*].appl.beaconPriority 3
param *.rsu[*].appl.dataOnSch false
param *.rsu[*].appl.dataPriority 2
param *.rsu[*].appl.debug false
param *.rsu[*].appl.headerLength "256 bit"
param *.rsu[*].appl.maxOffset 0.005s
param *.rsu[*].appl.sendBeacons false
param *.rsu[*].appl.sendData false
param *.rsu[*].appl.sendVoIP false
param *.rsu[*].applType "\"SymRSU11p\""
param *.rsu[0].mobility.x 2160
param *.rsu[0].mobility.y 3100
param *.rsu[0].mobility.z 3
param *.world.use2D false
param *.world.useTorus false

vector 14  SymScenerio.rsu[0].nic.mac1609_4  "Interwały kanałów"  ETV
vector 23  SymScenerio.node[0].veinsmobility  posx  ETV
vector 24  SymScenerio.node[0].veinsmobility  posy  ETV
vector 22  SymScenerio.node[0].nic.mac1609_4  "Interwały kanałów"  ETV
vector 25  SymScenerio.node[0].veinsmobility  speed  ETV
vector 26  SymScenerio.node[0].veinsmobility  acceleration  ETV
vector 27  SymScenerio.node[0].veinsmobility  co2emission  ETV
vector 15  SymScenerio.node[0].appl  "TX Packets"  ETV
vector 16  SymScenerio.node[0].appl  "TX Total"  ETV
vector 17  SymScenerio.node[0].appl  Pakietyzacja  ETV
vector 5  SymScenerio.rsu[0].appl  nodeALL:vector  ETV
attr source  nodeALL
attr title  "Opoznienia ALL, vector"
vector 9  SymScenerio.rsu[0].appl  "RX Packet"  ETV
vector 0  SymScenerio.rsu[0].appl  node0:vector  ETV
attr source  node0
attr title  "Opoznienia node0, vector"
vector 36  SymScenerio.node[1].veinsmobility  posx  ETV
vector 37  SymScenerio.node[1].veinsmobility  posy  ETV
vector 35  SymScenerio.node[1].nic.mac1609_4  "Interwały kanałów"  ETV
vector 38  SymScenerio.node[1].veinsmobility  speed  ETV
vector 28  SymScenerio.node[1].appl  "TX Packets"  ETV
vector 29  SymScenerio.node[1].appl  "TX Total"  ETV
vector 30  SymScenerio.node[1].appl  Pakietyzacja  ETV
vector 1  SymScenerio.rsu[0].appl  node1:vector  ETV
attr source  node1
attr title  "Opoznienia node1, vector"
vector 39  SymScenerio.node[1].veinsmobility  acceleration  ETV
vector 40  SymScenerio.node[1].veinsmobility  co2emission  ETV
vector 49  SymScenerio.node[2].veinsmobility  posx  ETV
vector 50  SymScenerio.node[2].veinsmobility  posy  ETV
vector 48  SymScenerio.node[2].nic.mac1609_4  "Interwały kanałów"  ETV
vector 51  SymScenerio.node[2].veinsmobility  speed  ETV
vector 52  SymScenerio.node[2].veinsmobility  acceleration  ETV
vector 53  SymScenerio.node[2].veinsmobility  co2emission  ETV
vector 41  SymScenerio.node[2].appl  "TX Packets"  ETV
vector 42  SymScenerio.node[2].appl  "TX Total"  ETV
vector 43  SymScenerio.node[2].appl  Pakietyzacja  ETV
vector 2  SymScenerio.rsu[0].appl  node2:vector  ETV
attr source  node2
attr title  "Opoznienia node2, vector"
vector 62  SymScenerio.node[3].veinsmobility  posx  ETV
vector 63  SymScenerio.node[3].veinsmobility  posy  ETV
vector 61  SymScenerio.node[3].nic.mac1609_4  "Interwały kanałów"  ETV
vector 64  SymScenerio.node[3].veinsmobility  speed  ETV
vector 65  SymScenerio.node[3].veinsmobility  acceleration  ETV
vector 66  SymScenerio.node[3].veinsmobility  co2emission  ETV
vector 54  SymScenerio.node[3].appl  "TX Packets"  ETV
vector 55  SymScenerio.node[3].appl  "TX Total"  ETV
vector 56  SymScenerio.node[3].appl  Pakietyzacja  ETV
vector 3  SymScenerio.rsu[0].appl  node3:vector  ETV
attr source  node3
attr title  "Opoznienia node3, vector"
vector 75  SymScenerio.node[4].veinsmobility  posx  ETV
vector 76  SymScenerio.node[4].veinsmobility  posy  ETV
vector 74  SymScenerio.node[4].nic.mac1609_4  "Interwały kanałów"  ETV
vector 77  SymScenerio.node[4].veinsmobility  speed  ETV
vector 78  SymScenerio.node[4].veinsmobility  acceleration  ETV
vector 79  SymScenerio.node[4].veinsmobility  co2emission  ETV
vector 67  SymScenerio.node[4].appl  "TX Packets"  ETV
vector 68  SymScenerio.node[4].appl  "TX Total"  ETV
vector 69  SymScenerio.node[4].appl  Pakietyzacja  ETV
vector 4  SymScenerio.rsu[0].appl  node4:vector  ETV
attr source  node4
attr title  "Opoznienia node4, vector"
17	25	0.541827398394	1.002
17	42	0.571827398394	1.002
17	60	0.601827398394	1.002
17	62	0.631827398394	1.002
17	92	0.661827398394	1.002
17	107	0.691827398394	1.002
17	125	0.721827398394	1.002
17	129	0.751827398394	1.002
17	157	0.781827398394	1.002
17	175	0.811827398394	1.002
17	177	0.841827398394	1.002
17	207	0.871827398394	1.002
17	225	0.901827398394	1.002
17	227	0.931827398394	1.002
17	257	0.961827398394	1.002
17	272	0.991827398394	1.002
17	290	1.021827398394	1.002
17	294	1.051827398394	1.002
17	322	1.081827398394	1.002
17	340	1.111827398394	1.002
17	342	1.141827398394	1.002
17	372	1.171827398394	1.002
17	390	1.201827398394	1.002
17	392	1.231827398394	1.002
17	422	1.261827398394	1.002
17	437	1.291827398394	1.002
17	455	1.321827398394	1.002
17	459	1.351827398394	1.002
17	487	1.381827398394	1.002
17	505	1.411827398394	1.002
17	507	1.441827398394	1.002
17	537	1.471827398394	1.002
17	555	1.501827398394	1.002
17	557	1.531827398394	1.002
17	587	1.561827398394	1.002
17	602	1.591827398394	1.002
17	620	1.621827398394	1.002
17	624	1.651827398394	1.002
17	652	1.681827398394	1.002
17	670	1.711827398394	1.002
17	672	1.741827398394	1.002
17	702	1.771827398394	1.002
17	720	1.801827398394	1.002
17	722	1.831827398394	1.002
17	752	1.861827398394	1.002
17	767	1.891827398394	1.002
17	785	1.921827398394	1.002
17	789	1.951827398394	1.002
17	817	1.981827398394	1.002
17	835	2.011827398394	1.002
17	837	2.041827398394	1.002
17	867	2.071827398394	1.002
17	885	2.101827398394	1.002
17	887	2.131827398394	1.002
17	917	2.161827398394	1.002
17	932	2.191827398394	1.002
17	950	2.221827398394	1.002
17	954	2.251827398394	1.002
17	982	2.281827398394	1.002
17	1000	2.311827398394	1.002
17	1002	2.341827398394	1.002
17	1032	2.371827398394	1.002
17	1050	2.401827398394	1.002
17	1052	2.431827398394	1.002
17	1082	2.461827398394	1.002
17	1097	2.491827398394	1.002
17	1115	2.521827398394	1.002
17	1119	2.551827398394	1.002
17	1147	2.581827398394	1.002
17	1165	2.611827398394	1.002
17	1167	2.641827398394	1.002
17	1197	2.671827398394	1.002
17	1215	2.701827398394	1.002
17	1217	2.731827398394	1.002
17	1247	2.761827398394	1.002
17	1262	2.791827398394	1.002
17	1280	2.821827398394	1.002
17	1284	2.851827398394	1.002
17	1312	2.881827398394	1.002
17	1330	2.911827398394	1.002
17	1332	2.941827398394	1.002
17	1362	2.971827398394	1.002
17	1380	3.001827398394	1.002
17	1382	3.031827398394	1.002
17	1412	3.061827398394	1.002
17	1427	3.091827398394	1.002
17	1445	3.121827398394	1.002
17	1450	3.151827398394	1.002
17	1490	3.181827398394	1.002
17	1515	3.211827398394	1.002
17	1517	3.241827398394	1.002
17	1581	3.271827398394	1.002
17	1627	3.301827398394	1.002
17	1631	3.331827398394	1.002
17	1707	3.361827398394	1.002
17	1749	3.391827398394	1.002
17	1776	3.421827398394	1.002
17	1783	3.451827398394	1.002
17	1882	3.481827398394	1.002
17	1928	3.511827398394	1.002
17	1932	3.541827398394	1.002
17	2015	3.571827398394	1.002
17	2061	3.601827398394	1.002
17	2065	3.631827398394	1.002
17	2141	3.661827398394	1.002
17	2183	3.691827398394	1.002
17	2210	3.721827398394	1.002
17	2217	3.751827398394	1.002
17	2316	3.781827398394	1.002
17	2362	3.811827398394	1.002
17	2366	3.841827398394	1.002
17	2449	3.871827398394	1.002
17	2495	3.901827398394	1.002
17	2499	3.931827398394	1.002
17	2582	3.961827398394	1.002
17	2624	3.991827398394	1.002
17	2651	4.021827398394	1.002
17	2658	4.051827398394	1.002
17	2757	4.081827398394	1.002
17	2803	4.111827398394	1.002
17	2807	4.141827398394	1.002
17	2890	4.171827398394	1.002
17	2936	4.201827398394	1.002
17	2940	4.231827398394	1.002
17	3023	4.261827398394	1.002
17	3065	4.291827398394	1.002
17	3092	4.321827398394	1.002
17	3099	4.351827398394	1.002
17	3191	4.381827398394	1.002
17	3237	4.411827398394	1.002
17	3241	4.441827398394	1.002
17	3324	4.471827398394	1.002
17	3370	4.501827398394	1.002
17	3374	4.531827398394	1.002
17	3457	4.561827398394	1.002
17	3499	4.591827398394	1.002
17	3526	4.621827398394	1.002
17	3533	4.651827398394	1.002
17	3632	4.681827398394	1.002
17	3678	4.711827398394	1.002
17	3682	4.741827398394	1.002
17	3765	4.771827398394	1.002
17	3811	4.801827398394	1.002
17	3815	4.831827398394	1.002
17	3891	4.861827398394	1.002
17	3933	4.891827398394	1.002
17	3960	4.921827398394	1.002
17	3967	4.951827398394	1.002
17	4059	4.981827398394	1.002
17	4105	5.011827398394	1.002
17	4109	5.041827398394	1.002
17	4192	5.071827398394	1.002
17	4238	5.101827398394	1.002
17	4242	5.131827398394	1.002
17	4325	5.161827398394	1.002
17	4367	5.191827398394	1.002
17	4394	5.221827398394	1.002
17	4401	5.251827398394	1.002
17	4500	5.281827398394	1.002
17	4546	5.311827398394	1.002
17	4550	5.341827398394	1.002
17	4633	5.371827398394	1.002
17	4679	5.401827398394	1.002
17	4683	5.431827398394	1.002
17	4759	5.461827398394	1.002
17	4801	5.491827398394	1.002
17	4828	5.521827398394	1.002
17	4835	5.551827398394	1.002
17	4934	5.581827398394	1.002
17	4980	5.611827398394	1.002
17	4984	5.641827398394	1.002
17	5067	5.671827398394	1.002
17	5113	5.701827398394	1.002
17	5117	5.731827398394	1.002
17	5193	5.761827398394	1.002
17	5235	5.791827398394	1.002
17	5262	5.821827398394	1.002
17	5269	5.851827398394	1.002
17	5368	5.881827398394	1.002
17	5414	5.911827398394	1.002
17	5418	5.941827398394	1.002
17	5501	5.971827398394	1.002
17	5547	6.001827398394	1.002
17	5551	6.031827398394	1.002
17	5627	6.061827398394	1.002
17	5669	6.091827398394	1.002
17	5696	6.121827398394	1.002
17	5704	6.151827398394	1.002
17	5833	6.181827398394	1.002
17	5892	6.211827398394	1.002
17	5896	6.241827398394	1.002
17	6004	6.271827398394	1.002
17	6063	6.301827398394	1.002
17	6067	6.331827398394	1.002
17	6175	6.361827398394	1.002
17	6229	6.391827398394	1.002
17	6263	6.421827398394	1.002
17	6271	6.451827398394	1.002
17	6400	6.481827398394	1.002
17	6459	6.511827398394	1.002
17	6463	6.541827398394	1.002
17	6571	6.571827398394	1.002
17	6630	6.601827398394	1.002
17	6634	6.631827398394	1.002
17	6732	6.661827398394	1.002
17	6786	6.691827398394	1.002
17	6820	6.721827398394	1.002
17	6828	6.751827398394	1.002
17	6947	6.781827398394	1.002
17	7006	6.811827398394	1.002
17	7010	6.841827398394	1.002
17	7118	6.871827398394	1.002
17	7177	6.901827398394	1.002
17	7181	6.931827398394	1.002
17	7289	6.961827398394	1.002
17	7370	6.991827398394	1.002
17	7406	7.021827398394	1.002
17	7416	7.051827398394	1.002
17	7612	7.081827398394	1.002
17	7698	7.111827398394	1.002
17	7704	7.141827398394	1.002
17	7854	7.171827398394	1.002
17	7940	7.201827398394	1.002
17	7946	7.231827398394	1.002
17	8096	7.261827398394	1.002
17	8177	7.291827398394	1.002
17	8213	7.321827398394	1.002
17	8223	7.351827398394	1.002
17	8419	7.381827398394	1.002
17	8505	7.411827398394	1.002
17	8511	7.441827398394	1.002
17	8661	7.471827398394	1.002
17	8747	7.501827398394	1.002
17	8753	7.531827398394	1.002
17	8893	7.561827398394	1.002
17	8974	7.591827398394	1.002
17	9010	7.621827398394	1.002
17	9020	7.651827398394	1.002
17	9216	7.681827398394	1.002
17	9302	7.711827398394	1.002
17	9308	7.741827398394	1.002
17	9468	7.771827398394	1.002
17	9554	7.801827398394	1.002
17	9560	7.831827398394	1.002
17	9710	7.861827398394	1.002
17	9791	7.891827398394	1.002
17	9827	7.921827398394	1.002
17	9837	7.951827398394	1.002
17	10043	7.981827398394	1.002
17	10129	8.011827398394	1.002
17	10135	8.041827398394	1.002
17	10285	8.071827398394	1.002
17	10371	8.101827398394	1.002
17	10377	8.131827398394	1.002
17	10537	8.161827398394	1.002
17	10618	8.191827398394	1.002
17	10654	8.221827398394	1.002
17	10664	8.251827398394	1.002
17	10860	8.281827398394	1.002
17	10946	8.311827398394	1.002
17	10952	8.341827398394	1.002
17	11102	8.371827398394	1.002
17	11188	8.401827398394	1.002
17	11194	8.431827398394	1.002
17	11337	8.461827398394	1.002
17	11418	8.491827398394	1.002
17	11454	8.521827398394	1.002
17	11464	8.551827398394	1.002
17	11660	8.581827398394	1.002
17	11746	8.611827398394	1.002
17	11752	8.641827398394	1.002
17	11902	8.671827398394	1.002
17	11988	8.701827398394	1.002
17	11994	8.731827398394	1.002
17	12154	8.761827398394	1.002
17	12235	8.791827398394	1.002
17	12271	8.821827398394	1.002
17	12281	8.851827398394	1.002
17	12487	8.881827398394	1.002
17	12573	8.911827398394	1.002
17	12579	8.941827398394	1.002
17	12729	8.971827398394	1.002
17	12815	9.001827398394	1.002
17	12821	9.031827398394	1.002
17	12971	9.061827398394	1.002
17	13052	9.091827398394	1.002
17	13088	9.121827398394	1.002
17	13099	9.151827398394	1.002
17	13353	9.181827398394	1.002
17	13458	9.211827398394	1.002
17	13464	9.241827398394	1.002
17	13649	9.271827398394	1.002
17	13754	9.301827398394	1.002
17	13760	9.331827398394	1.002
17	13935	9.361827398394	1.002
17	14034	9.391827398394	1.002
17	14077	9.421827398394	1.002
17	14088	9.451827398394	1.002
17	14320	9.481827398394	1.002
17	14425	9.511827398394	1.002
17	14431	9.541827398394	1.002
17	14628	9.571827398394	1.002
17	14733	9.601827398394	1.002
17	14739	9.631827398394	1.002
17	14936	9.661827398394	1.002
17	15068	9.691827398394	1.002
17	15113	9.721827398394	1.002
17	15126	9.751827398394	1.002
17	15462	9.781827398394	1.002
17	15600	9.811827398394	1.002
17	15608	9.841827398394	1.002
17	15847	9.871827398394	1.002
17	15985	9.901827398394	1.002
17	15993	9.931827398394	1.002
17	16241	9.961827398394	1.002
17	16373	9.991827398394	1.002
17	16418	10.021827398394	1.002
17	16431	10.051827398394	1.002
17	16767	10.081827398394	1.002
17	16905	10.111827398394	1.002
17	16913	10.141827398394	1.002
17	17152	10.171827398394	1.002
17	17290	10.201827398394	1.002
17	17298	10.231827398394	1.002
17	17546	10.261827398394	1.002
17	17678	10.291827398394	1.002
17	17723	10.321827398394	1.002
17	17736	10.351827398394	1.002
17	18050	10.381827398394	1.002
17	18188	10.411827398394	1.002
17	18196	10.441827398394	1.002
17	18444	10.471827398394	1.002
17	18582	10.501827398394	1.002
17	18590	10.531827398394	1.002
17	18838	10.561827398394	1.002
17	18970	10.591827398394	1.002
17	19015	10.621827398394	1.002
17	19028	10.651827398394	1.002
17	19346	10.681827398394	1.002
17	19484	10.711827398394	1.002
17	19492	10.741827398394	1.002
17	19740	10.771827398394	1.002
17	19878	10.801827398394	1.002
17	19886	10.831827398394	1.002
17	20103	10.861827398394	1.002
17	20235	10.891827398394	1.002
17	20280	10.921827398394	1.002
17	20293	10.951827398394	1.002
17	20616	10.981827398394	1.002
17	20754	11.011827398394	1.002
17	20762	11.041827398394	1.002
17	20997	11.071827398394	1.002
17	21135	11.101827398394	1.002
17	21143	11.131827398394	1.002
17	21378	11.161827398394	1.002
17	21510	11.191827398394	1.002
17	21555	11.221827398394	1.002
17	21568	11.251827398394	1.002
17	21882	11.281827398394	1.002
17	22020	11.311827398394	1.002
17	22028	11.341827398394	1.002
17	22276	11.371827398394	1.002
17	22414	11.401827398394	1.002
17	22422	11.431827398394	1.002
17	22657	11.461827398394	1.002
17	22789	11.491827398394	1.002
17	22834	11.521827398394	1.002
17	22847	11.551827398394	1.002
17	23170	11.581827398394	1.002
17	23308	11.611827398394	1.002
17	23316	11.641827398394	1.002
17	23555	11.671827398394	1.002
17	23693	11.701827398394	1.002
17	23701	11.731827398394	1.002
17	23927	11.761827398394	1.002
17	24059	11.791827398394	1.002
17	24104	11.821827398394	1.002
17	24117	11.851827398394	1.002
17	24431	11.881827398394	1.002
17	24569	11.911827398394	1.002
17	24577	11.941827398394	1.002
17	24825	11.971827398394	1.002
17	24963	12.001827398394	1.002
17	24971	12.031827398394	1.002
17	25206	12.061827398394	1.002
17	25338	12.091827398394	1.002
17	25383	12.121827398394	1.002
17	25397	12.151827398394	1.002
17	25780	12.181827398394	1.002
17	25943	12.211827398394	1.002
17	25951	12.241827398394	1.002
17	26261	12.271827398394	1.002
17	26424	12.301827398394	1.002
17	26432	12.331827398394	1.002
17	26715	12.361827398394	1.002
17	26871	12.391827398394	1.002
17	26923	12.421827398394	1.002
17	26937	12.451827398394	1.002
17	27320	12.481827398394	1.002
17	27483	12.511827398394	1.002
17	27491	12.541827398394	1.002
17	27785	12.571827398394	1.002
17	27948	12.601827398394	1.002
17	27956	12.631827398394	1.002
17	28250	12.661827398394	1.002
17	28406	12.691827398394	1.002
17	28458	12.721827398394	1.002
17	28472	12.751827398394	1.002
17	28855	12.781827398394	1.002
17	29018	12.811827398394	1.002
17	29026	12.841827398394	1.002
17	29336	12.871827398394	1.002
17	29499	12.901827398394	1.002
17	29507	12.931827398394	1.002
17	29790	12.961827398394	1.002
17	29946	12.991827398394	1.002
17	29998	13.021827398394	1.002
17	30012	13.051827398394	1.002
17	30451	13.081827398394	1.002
17	30616	13.111827398394	1.002
17	30626	13.141827398394	1.002
17	31017	13.171827398394	1.002
17	31219	13.201827398394	1.002
17	31229	13.231827398394	1.002
17	31567	13.261827398394	1.002
17	31762	13.291827398394	1.002
17	31816	13.321827398394	1.002
17	31832	13.351827398394	1.002
17	32302	13.381827398394	1.002
17	32467	13.411827398394	1.002
17	32477	13.441827398394	1.002
17	32846	13.471827398394	1.002
17	33048	13.501827398394	1.002
17	33058	13.531827398394	1.002
17	33385	13.561827398394	1.002
17	33580	13.591827398394	1.002
17	33634	13.621827398394	1.002
17	33650	13.651827398394	1.002
17	34151	13.681827398394	1.002
17	34316	13.711827398394	1.002
17	34326	13.741827398394	1.002
17	34706	13.771827398394	1.002
17	34908	13.801827398394	1.002
17	34918	13.831827398394	1.002
17	35277	13.861827398394	1.002
17	35472	13.891827398394	1.002
17	35526	13.921827398394	1.002
17	35542	13.951827398394	1.002
17	36011	13.981827398394	1.002
17	36176	14.011827398394	1.002
17	36186	14.041827398394	1.002
17	36563	14.071827398394	1.002
17	36765	14.101827398394	1.002
17	36775	14.131827398394	1.002
17	37102	14.161827398394	1.002
17	37297	14.191827398394	1.002
17	37351	14.221827398394	1.002
17	37367	14.251827398394	1.002
17	37847	14.281827398394	1.002
17	38012	14.311827398394	1.002
17	38022	14.341827398394	1.002
17	38402	14.371827398394	1.002
17	38604	14.401827398394	1.002
17	38614	14.431827398394	1.002
17	38957	14.461827398394	1.002
17	39152	14.491827398394	1.002
17	39206	14.521827398394	1.002
17	39222	14.551827398394	1.002
17	39707	14.581827398394	1.002
17	39872	14.611827398394	1.002
17	39882	14.641827398394	1.002
17	40278	14.671827398394	1.002
17	40480	14.701827398394	1.002
17	40490	14.731827398394	1.002
17	40844	14.761827398394	1.002
17	41039	14.791827398394	1.002
17	41093	14.821827398394	1.002
17	41109	14.851827398394	1.002
17	41583	14.881827398394	1.002
17	41748	14.911827398394	1.002
17	41758	14.941827398394	1.002
17	42133	14.971827398394	1.002
17	42335	15.001827398394	1.002
17	42345	15.031827398394	1.002
17	42693	15.061827398394	1.002
17	42888	15.091827398394	1.002
17	42942	15.121827398394	1.002
17	42958	15.151827398394	1.002
17	43427	15.181827398394	1.002
17	43592	15.211827398394	1.002
17	43602	15.241827398394	1.002
17	43977	15.271827398394	1.002
17	44179	15.301827398394	1.002
17	44189	15.331827398394	1.002
17	44516	15.361827398394	1.002
17	44711	15.391827398394	1.002
17	44765	15.421827398394	1.002
17	44781	15.451827398394	1.002
17	45261	15.481827398394	1.002
17	45426	15.511827398394	1.002
17	45436	15.541827398394	1.002
17	45832	15.571827398394	1.002
17	46034	15.601827398394	1.002
17	46044	15.631827398394	1.002
17	46398	15.661827398394	1.002
17	46593	15.691827398394	1.002
17	46647	15.721827398394	1.002
17	46663	15.751827398394	1.002
17	47159	15.781827398394	1.002
17	47324	15.811827398394	1.002
17	47334	15.841827398394	1.002
17	47725	15.871827398394	1.002
17	47927	15.901827398394	1.002
17	47937	15.931827398394	1.002
17	48291	15.961827398394	1.002
17	48486	15.991827398394	1.002
17	48540	16.021827398394	1.002
17	48556	16.051827398394	1.002
17	49025	16.081827398394	1.002
17	49190	16.111827398394	1.002
17	49200	16.141827398394	1.002
17	49580	16.171827398394	1.002
17	49782	16.201827398394	1.002
17	49792	16.231827398394	1.002
17	50151	16.261827398394	1.002
17	50346	16.291827398394	1.002
17	50400	16.321827398394	1.002
17	50416	16.351827398394	1.002
17	50885	16.381827398394	1.002
17	51050	16.411827398394	1.002
17	51060	16.441827398394	1.002
17	51440	16.471827398394	1.002
17	51642	16.501827398394	1.002
17	51652	16.531827398394	1.002
17	51990	16.561827398394	1.002
17	52185	16.591827398394	1.002
17	52239	16.621827398394	1.002
17	52255	16.651827398394	1.002
17	52729	16.681827398394	1.002
17	52894	16.711827398394	1.002
17	52904	16.741827398394	1.002
17	53279	16.771827398394	1.002
17	53481	16.801827398394	1.002
17	53491	16.831827398394	1.002
17	53829	16.861827398394	1.002
17	54024	16.891827398394	1.002
17	54078	16.921827398394	1.002
17	54094	16.951827398394	1.002
17	54574	16.981827398394	1.002
17	54739	17.011827398394	1.002
17	54749	17.041827398394	1.002
17	55140	17.071827398394	1.002
17	55342	17.101827398394	1.002
17	55352	17.131827398394	1.002
17	55690	17.161827398394	1.002
17	55885	17.191827398394	1.002
17	55939	17.221827398394	1.002
17	55955	17.251827398394	1.002
17	56413	17.281827398394	1.002
17	56578	17.311827398394	1.002
17	56588	17.341827398394	1.002
17	56968	17.371827398394	1.002
17	57170	17.401827398394	1.002
17	57180	17.431827398394	1.002
17	57523	17.461827398394	1.002
17	57718	17.491827398394	1.002
17	57772	17.521827398394	1.002
17	57788	17.551827398394	1.002
17	58268	17.581827398394	1.002
17	58433	17.611827398394	1.002
17	58443	17.641827398394	1.002
17	58812	17.671827398394	1.002
17	59014	17.701827398394	1.002
17	59024	17.731827398394	1.002
17	59367	17.761827398394	1.002
17	59562	17.791827398394	1.002
17	59616	17.821827398394	1.002
17	59632	17.851827398394	1.002
17	60112	17.881827398394	1.002
17	60277	17.911827398394	1.002
17	60287	17.941827398394	1.002
17	60694	17.971827398394	1.002
17	60896	18.001827398394	1.002
17	60906	18.031827398394	1.002
17	61249	18.061827398394	1.002
17	61444	18.091827398394	1.002
17	61498	18.121827398394	1.002
17	61514	18.151827398394	1.002
17	61972	18.181827398394	1.002
17	62137	18.211827398394	1.002
17	62147	18.241827398394	1.002
17	62527	18.271827398394	1.002
17	62729	18.301827398394	1.002
17	62739	18.331827398394	1.002
17	63093	18.361827398394	1.002
17	63288	18.391827398394	1.002
17	63342	18.421827398394	1.002
17	63358	18.451827398394	1.002
17	63827	18.481827398394	1.002
17	63992	18.511827398394	1.002
17	64002	18.541827398394	1.002
17	64409	18.571827398394	1.002
17	64611	18.601827398394	1.002
17	64621	18.631827398394	1.002
17	64948	18.661827398394	1.002
17	65143	18.691827398394	1.002
17	65197	18.721827398394	1.002
17	65213	18.751827398394	1.002
17	65698	18.781827398394	1.002
17	65863	18.811827398394	1.002
17	65873	18.841827398394	1.002
17	66242	18.871827398394	1.002
17	66444	18.901827398394	1.002
17	66454	18.931827398394	1.002
17	66813	18.961827398394	1.002
17	67008	18.991827398394	1.002
17	67062	19.021827398394	1.002
17	67078	19.051827398394	1.002
17	67552	19.081827398394	1.002
17	67717	19.111827398394	1.002
17	67727	19.141827398394	1.002
17	68134	19.171827398394	1.002
17	68336	19.201827398394	1.002
17	68346	19.231827398394	1.002
17	68678	19.261827398394	1.002
17	68873	19.291827398394	1.002
17	68927	19.321827398394	1.002
17	68943	19.351827398394	1.002
17	69439	19.381827398394	1.002
17	69604	19.411827398394	1.002
17	69614	19.441827398394	1.002
17	69994	19.471827398394	1.002
17	70196	19.501827398394	1.002
17	70206	19.531827398394	1.002
17	70565	19.561827398394	1.002
17	70760	19.591827398394	1.002
17	70814	19.621827398394	1.002
17	70830	19.651827398394	1.002
17	71315	19.681827398394	1.002
17	71480	19.711827398394	1.002
17	71490	19.741827398394	1.002
17	71881	19.771827398394	1.002
17	72083	19.801827398394	1.002
17	72093	19.831827398394	1.002
17	72431	19.861827398394	1.002
17	72626	19.891827398394	1.002
17	72680	19.921827398394	1.002
17	72696	19.951827398394	1.002
17	73181	19.981827398394	1.002
17	73346	20.011827398394	1.002
17	73356	20.041827398394	1.002
17	73747	20.071827398394	1.002
17	73949	20.101827398394	1.002
17	73959	20.131827398394	1.002
17	74307	20.161827398394	1.002
17	74502	20.191827398394	1.002
17	74556	20.221827398394	1.002
17	74572	20.251827398394	1.002
17	75057	20.281827398394	1.002
17	75222	20.311827398394	1.002
17	75232	20.341827398394	1.002
17	75628	20.371827398394	1.002
17	75830	20.401827398394	1.002
17	75840	20.431827398394	1.002
17	76199	20.461827398394	1.002
17	76394	20.491827398394	1.002
17	76448	20.521827398394	1.002
17	76464	20.551827398394	1.002
17	76949	20.581827398394	1.002
17	77114	20.611827398394	1.002
17	77124	20.641827398394	1.002
17	77504	20.671827398394	1.002
17	77706	20.701827398394	1.002
17	77716	20.731827398394	1.002
17	78048	20.761827398394	1.002
17	78243	20.791827398394	1.002
17	78297	20.821827398394	1.002
17	78313	20.851827398394	1.002
17	78809	20.881827398394	1.002
17	78974	20.911827398394	1.002
17	78984	20.941827398394	1.002
17	79369	20.971827398394	1.002
17	79571	21.001827398394	1.002
17	79581	21.031827398394	1.002
17	79924	21.061827398394	1.002
17	80119	21.091827398394	1.002
17	80173	21.121827398394	1.002
17	80189	21.151827398394	1.002
17	80674	21.181827398394	1.002
17	80839	21.211827398394	1.002
17	80849	21.241827398394	1.002
17	81224	21.271827398394	1.002
17	81426	21.301827398394	1.002
17	81436	21.331827398394	1.002
17	81779	21.361827398394	1.002
17	81974	21.391827398394	1.002
17	82028	21.421827398394	1.002
17	82044	21.451827398394	1.002
17	82518	21.481827398394	1.002
17	82683	21.511827398394	1.002
17	82693	21.541827398394	1.002
17	83100	21.571827398394	1.002
17	83302	21.601827398394	1.002
17	83312	21.631827398394	1.002
17	83650	21.661827398394	1.002
17	83845	21.691827398394	1.002
17	83899	21.721827398394	1.002
17	83915	21.751827398394	1.002
17	84373	21.781827398394	1.002
17	84538	21.811827398394	1.002
17	84548	21.841827398394	1.002
17	84912	21.871827398394	1.002
17	85114	21.901827398394	1.002
17	85124	21.931827398394	1.002
17	85440	21.961827398394	1.002
17	85635	21.991827398394	1.002
17	85689	22.021827398394	1.002
17	85705	22.051827398394	1.002
17	86179	22.081827398394	1.002
17	86344	22.111827398394	1.002
17	86354	22.141827398394	1.002
17	86745	22.171827398394	1.002
17	86947	22.201827398394	1.002
17	86957	22.231827398394	1.002
17	87295	22.261827398394	1.002
17	87490	22.291827398394	1.002
17	87544	22.321827398394	1.002
17	87560	22.351827398394	1.002
17	88040	22.381827398394	1.002
17	88205	22.411827398394	1.002
17	88215	22.441827398394	1.002
17	88595	22.471827398394	1.002
17	88797	22.501827398394	1.002
17	88807	22.531827398394	1.002
17	89161	22.561827398394	1.002
17	89356	22.591827398394	1.002
17	89410	22.621827398394	1.002
17	89426	22.651827398394	1.002
17	89884	22.681827398394	1.002
17	90049	22.711827398394	1.002
17	90059	22.741827398394	1.002
17	90455	22.771827398394	1.002
17	90657	22.801827398394	1.002
17	90667	22.831827398394	1.002
17	91010	22.861827398394	1.002
17	91205	22.891827398394	1.002
17	91259	22.921827398394	1.002
17	91275	22.951827398394	1.002
17	91739	22.981827398394	1.002
17	91904	23.011827398394	1.002
17	91914	23.041827398394	1.002
17	92299	23.071827398394	1.002
17	92501	23.101827398394	1.002
17	92511	23.131827398394	1.002
17	92870	23.161827398394	1.002
17	93065	23.191827398394	1.002
17	93119	23.221827398394	1.002
17	93135	23.251827398394	1.002
17	93599	23.281827398394	1.002
17	93764	23.311827398394	1.002
17	93774	23.341827398394	1.002
17	94181	23.371827398394	1.002
17	94383	23.401827398394	1.002
17	94393	23.431827398394	1.002
17	94736	23.461827398394	1.002
17	94931	23.491827398394	1.002
17	94985	23.521827398394	1.002
17	95001	23.551827398394	1.002
17	95481	23.581827398394	1.002
17	95646	23.611827398394	1.002
17	95656	23.641827398394	1.002
17	96052	23.671827398394	1.002
17	96254	23.701827398394	1.002
17	96264	23.731827398394	1.002
17	96591	23.761827398394	1.002
17	96786	23.791827398394	1.002
17	96840	23.821827398394	1.002
17	96856	23.851827398394	1.002
17	97341	23.881827398394	1.002
17	97506	23.911827398394	1.002
17	97516	23.941827398394	1.002
17	97896	23.971827398394	1.002
17	98098	24.001827398394	1.002
17	98108	24.031827398394	1.002
17	98462	24.061827398394	1.002
17	98657	24.091827398394	1.002
17	98711	24.121827398394	1.002
17	98727	24.151827398394	1.002
17	99217	24.181827398394	1.002
17	99382	24.211827398394	1.002
17	99392	24.241827398394	1.002
17	99783	24.271827398394	1.002
17	99985	24.301827398394	1.002
17	99995	24.331827398394	1.002
17	100349	24.361827398394	1.002
17	100544	24.391827398394	1.002
17	100598	24.421827398394	1.002
17	100614	24.451827398394	1.002
17	101088	24.481827398394	1.002
17	101253	24.511827398394	1.002
17	101263	24.541827398394	1.002
17	101638	24.571827398394	1.002
17	101840	24.601827398394	1.002
17	101850	24.631827398394	1.002
17	102177	24.661827398394	1.002
17	102372	24.691827398394	1.002
17	102426	24.721827398394	1.002
17	102442	24.751827398394	1.002
17	102911	24.781827398394	1.002
17	103076	24.811827398394	1.002
17	103086	24.841827398394	1.002
17	103466	24.871827398394	1.002
17	103668	24.901827398394	1.002
17	103678	24.931827398394	1.002
17	104032	24.961827398394	1.002
17	104227	24.991827398394	1.002
17	104281	25.021827398394	1.002
17	104297	25.051827398394	1.002
17	104782	25.081827398394	1.002
17	104947	25.111827398394	1.002
17	104957	25.141827398394	1.002
17	105337	25.171827398394	1.002
17	105539	25.201827398394	1.002
17	105549	25.231827398394	1.002
17	105887	25.261827398394	1.002
17	106082	25.291827398394	1.002
17	106136	25.321827398394	1.002
17	106152	25.351827398394	1.002
17	106615	25.381827398394	1.002
17	106780	25.411827398394	1.002
17	106790	25.441827398394	1.002
17	107197	25.471827398394	1.002
17	107399	25.501827398394	1.002
17	107409	25.531827398394	1.002
17	107763	25.561827398394	1.002
17	107958	25.591827398394	1.002
17	108012	25.621827398394	1.002
17	108028	25.651827398394	1.002
17	108513	25.681827398394	1.002
17	108678	25.711827398394	1.002
17	108688	25.741827398394	1.002
17	109063	25.771827398394	1.002
17	109265	25.801827398394	1.002
17	109275	25.831827398394	1.002
17	109629	25.861827398394	1.002
17	109824	25.891827398394	1.002
17	109878	25.921827398394	1.002
17	109894	25.951827398394	1.002
17	110368	25.981827398394	1.002
17	110533	26.011827398394	1.002
17	110543	26.041827398394	1.002
17	110950	26.071827398394	1.002
17	111152	26.101827398394	1.002
17	111162	26.131827398394	1.002
17	111500	26.161827398394	1.002
17	111695	26.191827398394	1.002
17	111749	26.221827398394	1.002
17	111765	26.251827398394	1.002
17	112234	26.281827398394	1.002
17	112399	26.311827398394	1.002
17	112409	26.341827398394	1.002
17	112800	26.371827398394	1.002
17	113002	26.401827398394	1.002
17	113012	26.431827398394	1.002
17	113350	26.461827398394	1.002
17	113545	26.491827398394	1.002
17	113599	26.521827398394	1.002
17	113615	26.551827398394	1.002
17	114089	26.581827398394	1.002
17	114254	26.611827398394	1.002
17	114264	26.641827398394	1.002
17	114655	26.671827398394	1.002
17	114857	26.701827398394	1.002
17	114867	26.731827398394	1.002
17	115194	26.761827398394	1.002
17	115389	26.791827398394	1.002
17	115443	26.821827398394	1.002
17	115459	26.851827398394	1.002
17	115944	26.881827398394	1.002
17	116109	26.911827398394	1.002
17	116119	26.941827398394	1.002
17	116510	26.971827398394	1.002
17	116712	27.001827398394	1.002
17	116722	27.031827398394	1.002
17	117049	27.061827398394	1.002
17	117244	27.091827398394	1.002
17	117298	27.121827398394	1.002
17	117314	27.151827398394	1.002
17	117799	27.181827398394	1.002
17	117964	27.211827398394	1.002
17	117974	27.241827398394	1.002
17	118349	27.271827398394	1.002
17	118551	27.301827398394	1.002
17	118561	27.331827398394	1.002
17	118915	27.361827398394	1.002
17	119110	27.391827398394	1.002
17	119164	27.421827398394	1.002
17	119180	27.451827398394	1.002
17	119660	27.481827398394	1.002
17	119825	27.511827398394	1.002
17	119835	27.541827398394	1.002
17	120210	27.571827398394	1.002
17	120412	27.601827398394	1.002
17	120422	27.631827398394	1.002
17	120749	27.661827398394	1.002
17	120944	27.691827398394	1.002
17	120998	27.721827398394	1.002
17	121014	27.751827398394	1.002
17	121472	27.781827398394	1.002
17	121637	27.811827398394	1.002
17	121647	27.841827398394	1.002
17	122038	27.871827398394	1.002
17	122240	27.901827398394	1.002
17	122250	27.931827398394	1.002
17	122604	27.961827398394	1.002
17	122799	27.991827398394	1.002
17	122853	28.021827398394	1.002
17	122869	28.051827398394	1.002
17	123332	28.081827398394	1.002
17	123497	28.111827398394	1.002
17	123507	28.141827398394	1.002
17	123882	28.171827398394	1.002
17	124084	28.201827398394	1.002
17	124094	28.231827398394	1.002
17	124437	28.261827398394	1.002
17	124632	28.291827398394	1.002
17	124686	28.321827398394	1.002
17	124702	28.351827398394	1.002
17	125187	28.381827398394	1.002
17	125352	28.411827398394	1.002
17	125362	28.441827398394	1.002
17	125742	28.471827398394	1.002
17	125944	28.501827398394	1.002
17	125954	28.531827398394	1.002
17	126275	28.561827398394	1.002
17	126470	28.591827398394	1.002
17	126524	28.621827398394	1.002
17	126540	28.651827398394	1.002
17	127009	28.681827398394	1.002
17	127174	28.711827398394	1.002
17	127184	28.741827398394	1.002
17	127559	28.771827398394	1.002
17	127761	28.801827398394	1.002
17	127771	28.831827398394	1.002
17	128109	28.861827398394	1.002
17	128304	28.891827398394	1.002
17	128358	28.921827398394	1.002
17	128374	28.951827398394	1.002
17	128832	28.981827398394	1.002
17	128997	29.011827398394	1.002
17	129007	29.041827398394	1.002
17	129371	29.071827398394	1.002
17	129573	29.101827398394	1.002
17	129583	29.131827398394	1.002
17	129937	29.161827398394	1.002
17	130132	29.191827398394	1.002
17	130186	29.221827398394	1.002
17	130202	29.251827398394	1.002
17	130682	29.281827398394	1.002
17	130847	29.311827398394	1.002
17	130857	29.341827398394	1.002
17	131248	29.371827398394	1.002
17	131450	29.401827398394	1.002
17	131460	29.431827398394	1.002
17	131808	29.461827398394	1.002
17	132003	29.491827398394	1.002
17	132057	29.521827398394	1.002
17	132073	29.551827398394	1.002
17	132547	29.581827398394	1.002
17	132712	29.611827398394	1.002
17	132722	29.641827398394	1.002
17	133091	29.671827398394	1.002
17	133293	29.701827398394	1.002
17	133303	29.731827398394	1.002
17	133640	29.761827398394	1.002
17	133835	29.791827398394	1.002
17	133889	29.821827398394	1.002
17	133905	29.851827398394	1.002
17	134390	29.881827398394	1.002
17	134555	29.911827398394	1.002
17	134565	29.941827398394	1.002
17	134972	29.971827398394	1.002
17	135174	30.001827398394	1.002
17	135184	30.031827398394	1.002
17	135511	30.061827398394	1.002
17	135706	30.091827398394	1.002
17	135760	30.121827398394	1.002
17	135776	30.151827398394	1.002
17	136272	30.181827398394	1.002
17	136437	30.211827398394	1.002
17	136447	30.241827398394	1.002
17	136832	30.271827398394	1.002
17	137034	30.301827398394	1.002
17	137044	30.331827398394	1.002
17	137387	30.361827398394	1.002
17	137582	30.391827398394	1.002
17	137636	30.421827398394	1.002
17	137652	30.451827398394	1.002
17	138137	30.481827398394	1.002
17	138302	30.511827398394	1.002
17	138312	30.541827398394	1.002
17	138735	30.571827398394	1.002
17	138937	30.601827398394	1.002
17	138947	30.631827398394	1.002
17	139274	30.661827398394	1.002
17	139469	30.691827398394	1.002
17	139523	30.721827398394	1.002
17	139539	30.751827398394	1.002
17	140024	30.781827398394	1.002
17	140189	30.811827398394	1.002
17	140199	30.841827398394	1.002
17	140590	30.871827398394	1.002
17	140792	30.901827398394	1.002
17	140802	30.931827398394	1.002
17	141156	30.961827398394	1.002
17	141351	30.991827398394	1.002
17	141405	31.021827398394	1.002
17	141421	31.051827398394	1.002
17	141874	31.081827398394	1.002
17	142039	31.111827398394	1.002
17	142049	31.141827398394	1.002
17	142440	31.171827398394	1.002
17	142642	31.201827398394	1.002
17	142652	31.231827398394	1.002
17	142979	31.261827398394	1.002
17	143174	31.291827398394	1.002
17	143228	31.321827398394	1.002
17	143244	31.351827398394	1.002
17	143718	31.381827398394	1.002
17	143883	31.411827398394	1.002
17	143893	31.441827398394	1.002
17	144284	31.471827398394	1.002
17	144486	31.501827398394	1.002
17	144496	31.531827398394	1.002
17	144844	31.561827398394	1.002
17	145039	31.591827398394	1.002
17	145093	31.621827398394	1.002
17	145109	31.651827398394	1.002
17	145578	31.681827398394	1.002
17	145743	31.711827398394	1.002
17	145753	31.741827398394	1.002
17	146128	31.771827398394	1.002
17	146330	31.801827398394	1.002
17	146340	31.831827398394	1.002
17	146694	31.861827398394	1.002
17	146889	31.891827398394	1.002
17	146943	31.921827398394	1.002
17	146959	31.951827398394	1.002
17	147460	31.981827398394	1.002
17	147625	32.011827398394	1.002
17	147635	32.041827398394	1.002
17	148010	32.071827398394	1.002
17	148212	32.101827398394	1.002
17	148222	32.131827398394	1.002
17	148565	32.161827398394	1.002
17	148760	32.191827398394	1.002
17	148814	32.221827398394	1.002
17	148830	32.251827398394	1.002
17	149288	32.281827398394	1.002
17	149453	32.311827398394	1.002
17	149463	32.341827398394	1.002
17	149859	32.371827398394	1.002
17	150061	32.401827398394	1.002
17	150071	32.431827398394	1.002
17	150403	32.461827398394	1.002
17	150598	32.491827398394	1.002
17	150652	32.521827398394	1.002
17	150668	32.551827398394	1.002
17	151142	32.581827398394	1.002
17	151307	32.611827398394	1.002
17	151317	32.641827398394	1.002
17	151708	32.671827398394	1.002
17	151910	32.701827398394	1.002
17	151920	32.731827398394	1.002
17	152263	32.761827398394	1.002
17	152458	32.791827398394	1.002
17	152512	32.821827398394	1.002
17	152528	32.851827398394	1.002
17	153002	32.881827398394	1.002
17	153167	32.911827398394	1.002
17	153177	32.941827398394	1.002
17	153584	32.971827398394	1.002
17	153786	33.001827398394	1.002
17	153796	33.031827398394	1.002
17	154134	33.061827398394	1.002
17	154329	33.091827398394	1.002
17	154383	33.121827398394	1.002
17	154399	33.151827398394	1.002
17	154884	33.181827398394	1.002
17	155049	33.211827398394	1.002
17	155059	33.241827398394	1.002
17	155439	33.271827398394	1.002
17	155641	33.301827398394	1.002
17	155651	33.331827398394	1.002
17	155994	33.361827398394	1.002
17	156189	33.391827398394	1.002
17	156243	33.421827398394	1.002
17	156259	33.451827398394	1.002
17	156755	33.481827398394	1.002
17	156920	33.511827398394	1.002
17	156930	33.541827398394	1.002
17	157353	33.571827398394	1.002
17	157555	33.601827398394	1.002
17	157565	33.631827398394	1.002
17	157908	33.661827398394	1.002
17	158103	33.691827398394	1.002
17	158157	33.721827398394	1.002
17	158173	33.751827398394	1.002
17	158647	33.781827398394	1.002
17	158812	33.811827398394	1.002
17	158822	33.841827398394	1.002
17	159213	33.871827398394	1.002
17	159415	33.901827398394	1.002
17	159425	33.931827398394	1.002
17	159741	33.961827398394	1.002
17	159936	33.991827398394	1.002
17	159990	34.021827398394	1.002
17	160006	34.051827398394	1.002
17	160491	34.081827398394	1.002
17	160656	34.111827398394	1.002
17	160666	34.141827398394	1.002
17	161046	34.171827398394	1.002
17	161248	34.201827398394	1.002
17	161258	34.231827398394	1.002
17	161606	34.261827398394	1.002
17	161801	34.291827398394	1.002
17	161855	34.321827398394	1.002
17	161871	34.351827398394	1.002
17	162340	34.381827398394	1.002
17	162505	34.411827398394	1.002
17	162515	34.441827398394	1.002
17	162911	34.471827398394	1.002
17	163113	34.501827398394	1.002
17	163123	34.531827398394	1.002
17	163493	34.561827398394	1.002
17	163688	34.591827398394	1.002
17	163742	34.621827398394	1.002
17	163758	34.651827398394	1.002
17	164221	34.681827398394	1.002
17	164386	34.711827398394	1.002
17	164396	34.741827398394	1.002
17	164803	34.771827398394	1.002
17	165005	34.801827398394	1.002
17	165015	34.831827398394	1.002
17	165369	34.861827398394	1.002
17	165564	34.891827398394	1.002
17	165618	34.921827398394	1.002
17	165634	34.951827398394	1.002
17	166130	34.981827398394	1.002
17	166295	35.011827398394	1.002
17	166305	35.041827398394	1.002
17	166701	35.071827398394	1.002
17	166903	35.101827398394	1.002
17	166913	35.131827398394	1.002
17	167245	35.161827398394	1.002
17	167440	35.191827398394	1.002
17	167494	35.221827398394	1.002
17	167510	35.251827398394	1.002
17	167979	35.281827398394	1.002
17	168144	35.311827398394	1.002
17	168154	35.341827398394	1.002
17	168561	35.371827398394	1.002
17	168763	35.401827398394	1.002
17	168773	35.431827398394	1.002
17	169105	35.461827398394	1.002
17	169300	35.491827398394	1.002
17	169354	35.521827398394	1.002
17	169370	35.551827398394	1.002
17	169855	35.581827398394	1.002
17	170020	35.611827398394	1.002
17	170030	35.641827398394	1.002
17	170421	35.671827398394	1.002
17	170623	35.701827398394	1.002
17	170633	35.731827398394	1.002
17	170971	35.761827398394	1.002
17	171166	35.791827398394	1.002
17	171220	35.821827398394	1.002
17	171236	35.851827398394	1.002
17	171716	35.881827398394	1.002
17	171881	35.911827398394	1.002
17	171891	35.941827398394	1.002
17	172260	35.971827398394	1.002
17	172462	36.001827398394	1.002
17	172472	36.031827398394	1.002
17	172804	36.061827398394	1.002
17	172999	36.091827398394	1.002
17	173053	36.121827398394	1.002
17	173069	36.151827398394	1.002
17	173570	36.181827398394	1.002
17	173735	36.211827398394	1.002
17	173745	36.241827398394	1.002
17	174125	36.271827398394	1.002
17	174327	36.301827398394	1.002
17	174337	36.331827398394	1.002
17	174664	36.361827398394	1.002
17	174859	36.391827398394	1.002
17	174913	36.421827398394	1.002
17	174929	36.451827398394	1.002
17	175403	36.481827398394	1.002
17	175568	36.511827398394	1.002
17	175578	36.541827398394	1.002
17	175953	36.571827398394	1.002
17	176155	36.601827398394	1.002
17	176165	36.631827398394	1.002
17	176508	36.661827398394	1.002
17	176703	36.691827398394	1.002
17	176757	36.721827398394	1.002
17	176773	36.751827398394	1.002
17	177242	36.781827398394	1.002
17	177407	36.811827398394	1.002
17	177417	36.841827398394	1.002
17	177808	36.871827398394	1.002
17	178010	36.901827398394	1.002
17	178020	36.931827398394	1.002
17	178374	36.961827398394	1.002
17	178569	36.991827398394	1.002
17	178623	37.021827398394	1.002
17	178639	37.051827398394	1.002
17	179102	37.081827398394	1.002
17	179267	37.111827398394	1.002
17	179277	37.141827398394	1.002
17	179668	37.171827398394	1.002
17	179870	37.201827398394	1.002
17	179880	37.231827398394	1.002
17	180218	37.261827398394	1.002
17	180413	37.291827398394	1.002
17	180467	37.321827398394	1.002
17	180483	37.351827398394	1.002
17	180968	37.381827398394	1.002
17	181133	37.411827398394	1.002
17	181143	37.441827398394	1.002
17	181528	37.471827398394	1.002
17	181730	37.501827398394	1.002
17	181740	37.531827398394	1.002
17	182078	37.561827398394	1.002
17	182273	37.591827398394	1.002
17	182327	37.621827398394	1.002
17	182343	37.651827398394	1.002
17	182823	37.681827398394	1.002
17	182988	37.711827398394	1.002
17	182998	37.741827398394	1.002
17	183378	37.771827398394	1.002
17	183580	37.801827398394	1.002
17	183590	37.831827398394	1.002
17	183944	37.861827398394	1.002
17	184139	37.891827398394	1.002
17	184193	37.921827398394	1.002
17	184209	37.951827398394	1.002
17	184678	37.981827398394	1.002
17	184843	38.011827398394	1.002
17	184853	38.041827398394	1.002
17	185260	38.071827398394	1.002
17	185462	38.101827398394	1.002
17	185472	38.131827398394	1.002
17	185826	38.161827398394	1.002
17	186021	38.191827398394	1.002
17	186075	38.221827398394	1.002
17	186091	38.251827398394	1.002
17	186576	38.281827398394	1.002
17	186741	38.311827398394	1.002
17	186751	38.341827398394	1.002
17	187147	38.371827398394	1.002
17	187349	38.401827398394	1.002
17	187359	38.431827398394	1.002
17	187702	38.461827398394	1.002
17	187897	38.491827398394	1.002
17	187951	38.521827398394	1.002
17	187967	38.551827398394	1.002
17	188436	38.581827398394	1.002
17	188601	38.611827398394	1.002
17	188611	38.641827398394	1.002
17	188975	38.671827398394	1.002
17	189177	38.701827398394	1.002
17	189187	38.731827398394	1.002
17	189524	38.761827398394	1.002
17	189719	38.791827398394	1.002
17	189773	38.821827398394	1.002
17	189789	38.851827398394	1.002
17	190247	38.881827398394	1.002
17	190412	38.911827398394	1.002
17	190422	38.941827398394	1.002
17	190813	38.971827398394	1.002
17	191015	39.001827398394	1.002
17	191025	39.031827398394	1.002
17	191357	39.061827398394	1.002
17	191552	39.091827398394	1.002
17	191606	39.121827398394	1.002
17	191622	39.151827398394	1.002
17	192091	39.181827398394	1.002
17	192256	39.211827398394	1.002
17	192266	39.241827398394	1.002
17	192641	39.271827398394	1.002
17	192843	39.301827398394	1.002
17	192853	39.331827398394	1.002
17	193180	39.361827398394	1.002
17	193375	39.391827398394	1.002
17	193429	39.421827398394	1.002
17	193445	39.451827398394	1.002
17	193908	39.481827398394	1.002
17	194073	39.511827398394	1.002
17	194083	39.541827398394	1.002
17	194490	39.571827398394	1.002
17	194692	39.601827398394	1.002
17	194702	39.631827398394	1.002
17	195029	39.661827398394	1.002
17	195224	39.691827398394	1.002
17	195278	39.721827398394	1.002
17	195294	39.751827398394	1.002
17	195763	39.781827398394	1.002
17	195928	39.811827398394	1.002
17	195938	39.841827398394	1.002
17	196318	39.871827398394	1.002
17	196520	39.901827398394	1.002
17	196530	39.931827398394	1.002
17	196857	39.961827398394	1.002
17	197052	39.991827398394	1.002
17	197106	40.021827398394	1.002
17	197122	40.051827398394	1.002
17	197602	40.081827398394	1.002
17	197767	40.111827398394	1.002
17	197777	40.141827398394	1.002
17	198184	40.171827398394	1.002
17	198386	40.201827398394	1.002
17	198396	40.231827398394	1.002
17	198712	40.261827398394	1.002
17	198907	40.291827398394	1.002
17	198961	40.321827398394	1.002
17	198977	40.351827398394	1.002
17	199457	40.381827398394	1.002
17	199622	40.411827398394	1.002
17	199632	40.441827398394	1.002
17	200012	40.471827398394	1.002
17	200214	40.501827398394	1.002
17	200224	40.531827398394	1.002
17	200556	40.561827398394	1.002
17	200751	40.591827398394	1.002
17	200805	40.621827398394	1.002
17	200821	40.651827398394	1.002
17	201306	40.681827398394	1.002
17	201471	40.711827398394	1.002
17	201481	40.741827398394	1.002
17	201861	40.771827398394	1.002
17	202063	40.801827398394	1.002
17	202073	40.831827398394	1.002
17	202405	40.861827398394	1.002
17	202600	40.891827398394	1.002
17	202654	40.921827398394	1.002
17	202670	40.951827398394	1.002
17	203144	40.981827398394	1.002
17	203309	41.011827398394	1.002
17	203319	41.041827398394	1.002
17	203715	41.071827398394	1.002
17	203917	41.101827398394	1.002
17	203927	41.131827398394	1.002
17	204270	41.161827398394	1.002
17	204465	41.191827398394	1.002
17	204519	41.221827398394	1.002
17	204535	41.251827398394	1.002
17	205009	41.281827398394	1.002
17	205174	41.311827398394	1.002
17	205184	41.341827398394	1.002
17	205607	41.371827398394	1.002
17	205809	41.401827398394	1.002
17	205819	41.431827398394	1.002
17	206162	41.461827398394	1.002
17	206357	41.491827398394	1.002
17	206411	41.521827398394	1.002
17	206427	41.551827398394	1.002
17	206912	41.581827398394	1.002
17	207077	41.611827398394	1.002
17	207087	41.641827398394	1.002
17	207494	41.671827398394	1.002
17	207696	41.701827398394	1.002
17	207706	41.731827398394	1.002
17	208028	41.761827398394	1.002
17	208223	41.791827398394	1.002
17	208277	41.821827398394	1.002
17	208293	41.851827398394	1.002
17	208778	41.881827398394	1.002
17	208943	41.911827398394	1.002
17	208953	41.941827398394	1.002
17	209328	41.971827398394	1.002
17	209530	42.001827398394	1.002
17	209540	42.031827398394	1.002
17	209894	42.061827398394	1.002
17	210089	42.091827398394	1.002
17	210143	42.121827398394	1.002
17	210159	42.151827398394	1.002
17	210644	42.181827398394	1.002
17	210809	42.211827398394	1.002
17	210819	42.241827398394	1.002
17	211226	42.271827398394	1.002
17	211428	42.301827398394	1.002
17	211438	42.331827398394	1.002
17	211776	42.361827398394	1.002
17	211971	42.391827398394	1.002
17	212025	42.421827398394	1.002
17	212041	42.451827398394	1.002
17	212494	42.481827398394	1.002
17	212659	42.511827398394	1.002
17	212669	42.541827398394	1.002
17	213033	42.571827398394	1.002
17	213235	42.601827398394	1.002
17	213245	42.631827398394	1.002
17	213588	42.661827398394	1.002
17	213783	42.691827398394	1.002
17	213837	42.721827398394	1.002
17	213853	42.751827398394	1.002
17	214333	42.781827398394	1.002
17	214498	42.811827398394	1.002
17	214508	42.841827398394	1.002
17	214904	42.871827398394	1.002
17	215106	42.901827398394	1.002
17	215116	42.931827398394	1.002
17	215459	42.961827398394	1.002
17	215654	42.991827398394	1.002
17	215708	43.021827398394	1.002
17	215724	43.051827398394	1.002
17	216193	43.081827398394	1.002
17	216358	43.111827398394	1.002
17	216368	43.141827398394	1.002
17	216775	43.171827398394	1.002
17	216977	43.201827398394	1.002
17	216987	43.231827398394	1.002
17	217325	43.261827398394	1.002
17	217520	43.291827398394	1.002
17	217574	43.321827398394	1.002
17	217590	43.351827398394	1.002
17	218064	43.381827398394	1.002
17	218229	43.411827398394	1.002
17	218239	43.441827398394	1.002
17	218630	43.471827398394	1.002
17	218832	43.501827398394	1.002
17	218842	43.531827398394	1.002
17	219169	43.561827398394	1.002
17	219364	43.591827398394	1.002
17	219418	43.621827398394	1.002
17	219434	43.651827398394	1.002
17	219903	43.681827398394	1.002
17	220068	43.711827398394	1.002
17	220078	43.741827398394	1.002
17	220485	43.771827398394	1.002
17	220687	43.801827398394	1.002
17	220697	43.831827398394	1.002
17	221024	43.861827398394	1.002
17	221219	43.891827398394	1.002
17	221273	43.921827398394	1.002
17	221289	43.951827398394	1.002
17	221774	43.981827398394	1.002
17	221939	44.011827398394	1.002
17	221949	44.041827398394	1.002
17	222356	44.071827398394	1.002
17	222558	44.101827398394	1.002
17	222568	44.131827398394	1.002
17	222922	44.161827398394	1.002
17	223117	44.191827398394	1.002
17	223171	44.221827398394	1.002
17	223187	44.251827398394	1.002
17	223656	44.281827398394	1.002
17	223821	44.311827398394	1.002
17	223831	44.341827398394	1.002
17	224227	44.371827398394	1.002
17	224429	44.401827398394	1.002
17	224439	44.431827398394	1.002
17	224793	44.461827398394	1.002
17	224988	44.491827398394	1.002
17	225042	44.521827398394	1.002
17	225058	44.551827398394	1.002
17	225554	44.581827398394	1.002
17	225719	44.611827398394	1.002
17	225729	44.641827398394	1.002
17	226109	44.671827398394	1.002
17	226311	44.701827398394	1.002
17	226321	44.731827398394	1.002
17	226675	44.761827398394	1.002
17	226870	44.791827398394	1.002
17	226924	44.821827398394	1.002
17	226940	44.851827398394	1.002
17	227414	44.881827398394	1.002
17	227579	44.911827398394	1.002
17	227589	44.941827398394	1.002
17	227980	44.971827398394	1.002
17	228182	45.001827398394	1.002
17	228192	45.031827398394	1.002
17	228535	45.061827398394	1.002
17	228730	45.091827398394	1.002
17	228784	45.121827398394	1.002
17	228800	45.151827398394	1.002
17	229285	45.181827398394	1.002
17	229450	45.211827398394	1.002
17	229460	45.241827398394	1.002
17	229867	45.271827398394	1.002
17	230069	45.301827398394	1.002
17	230079	45.331827398394	1.002
17	230417	45.361827398394	1.002
17	230612	45.391827398394	1.002
17	230666	45.421827398394	1.002
17	230682	45.451827398394	1.002
17	231151	45.481827398394	1.002
17	231316	45.511827398394	1.002
17	231326	45.541827398394	1.002
17	231701	45.571827398394	1.002
17	231903	45.601827398394	1.002
17	231913	45.631827398394	1.002
17	232240	45.661827398394	1.002
17	232435	45.691827398394	1.002
17	232489	45.721827398394	1.002
17	232505	45.751827398394	1.002
17	232990	45.781827398394	1.002
17	233155	45.811827398394	1.002
17	233165	45.841827398394	1.002
17	233572	45.871827398394	1.002
17	233774	45.901827398394	1.002
17	233784	45.931827398394	1.002
17	234143	45.961827398394	1.002
17	234338	45.991827398394	1.002
17	234392	46.021827398394	1.002
17	234408	46.051827398394	1.002
17	234877	46.081827398394	1.002
17	235042	46.111827398394	1.002
17	235052	46.141827398394	1.002
17	235421	46.171827398394	1.002
17	235623	46.201827398394	1.002
17	235633	46.231827398394	1.002
17	235971	46.261827398394	1.002
17	236166	46.291827398394	1.002
17	236220	46.321827398394	1.002
17	236236	46.351827398394	1.002
17	236721	46.381827398394	1.002
17	236886	46.411827398394	1.002
17	236896	46.441827398394	1.002
17	237287	46.471827398394	1.002
17	237489	46.501827398394	1.002
17	237499	46.531827398394	1.002
17	237837	46.561827398394	1.002
17	238032	46.591827398394	1.002
17	238086	46.621827398394	1.002
17	238102	46.651827398394	1.002
17	238566	46.681827398394	1.002
17	238731	46.711827398394	1.002
17	238741	46.741827398394	1.002
17	239121	46.771827398394	1.002
17	239323	46.801827398394	1.002
17	239333	46.831827398394	1.002
17	239676	46.861827398394	1.002
17	239871	46.891827398394	1.002
17	239925	46.921827398394	1.002
17	239941	46.951827398394	1.002
17	240421	46.981827398394	1.002
17	240586	47.011827398394	1.002
17	240596	47.041827398394	1.002
17	240960	47.071827398394	1.002
17	241162	47.101827398394	1.002
17	241172	47.131827398394	1.002
17	241510	47.161827398394	1.002
17	241705	47.191827398394	1.002
17	241759	47.221827398394	1.002
17	241775	47.251827398394	1.002
17	242255	47.281827398394	1.002
17	242420	47.311827398394	1.002
17	242430	47.341827398394	1.002
17	242837	47.371827398394	1.002
17	243039	47.401827398394	1.002
17	243049	47.431827398394	1.002
17	243381	47.461827398394	1.002
17	243576	47.491827398394	1.002
17	243630	47.521827398394	1.002
17	243646	47.551827398394	1.002
17	244131	47.581827398394	1.002
17	244296	47.611827398394	1.002
17	244306	47.641827398394	1.002
17	244702	47.671827398394	1.002
17	244904	47.701827398394	1.002
17	244914	47.731827398394	1.002
17	245257	47.761827398394	1.002
17	245452	47.791827398394	1.002
17	245506	47.821827398394	1.002
17	245522	47.851827398394	1.002
17	245996	47.881827398394	1.002
17	246161	47.911827398394	1.002
17	246171	47.941827398394	1.002
17	246567	47.971827398394	1.002
17	246769	48.001827398394	1.002
17	246779	48.031827398394	1.002
17	247117	48.061827398394	1.002
17	247312	48.091827398394	1.002
17	247366	48.121827398394	1.002
17	247382	48.151827398394	1.002
17	247851	48.181827398394	1.002
17	248016	48.211827398394	1.002
17	248026	48.241827398394	1.002
17	248406	48.271827398394	1.002
17	248608	48.301827398394	1.002
17	248618	48.331827398394	1.002
17	248956	48.361827398394	1.002
17	249151	48.391827398394	1.002
17	249205	48.421827398394	1.002
17	249221	48.451827398394	1.002
17	249674	48.481827398394	1.002
17	249839	48.511827398394	1.002
17	249849	48.541827398394	1.002
17	250240	48.571827398394	1.002
17	250442	48.601827398394	1.002
17	250452	48.631827398394	1.002
17	250773	48.661827398394	1.002
17	250968	48.691827398394	1.002
17	251022	48.721827398394	1.002
17	251038	48.751827398394	1.002
17	251507	48.781827398394	1.002
17	251672	48.811827398394	1.002
17	251682	48.841827398394	1.002
17	252089	48.871827398394	1.002
17	252291	48.901827398394	1.002
17	252301	48.931827398394	1.002
17	252644	48.961827398394	1.002
17	252839	48.991827398394	1.002
17	252893	49.021827398394	1.002
17	252909	49.051827398394	1.002
17	253373	49.081827398394	1.002
17	253538	49.111827398394	1.002
17	253548	49.141827398394	1.002
17	253923	49.171827398394	1.002
17	254125	49.201827398394	1.002
17	254135	49.231827398394	1.002
17	254478	49.261827398394	1.002
17	254673	49.291827398394	1.002
17	254727	49.321827398394	1.002
17	254743	49.351827398394	1.002
17	255212	49.381827398394	1.002
17	255377	49.411827398394	1.002
17	255387	49.441827398394	1.002
17	255794	49.471827398394	1.002
17	255996	49.501827398394	1.002
17	256006	49.531827398394	1.002
17	256365	49.561827398394	1.002
17	256560	49.591827398394	1.002
17	256614	49.621827398394	1.002
17	256630	49.651827398394	1.002
17	257104	49.681827398394	1.002
17	257269	49.711827398394	1.002
17	257279	49.741827398394	1.002
17	257675	49.771827398394	1.002
17	257877	49.801827398394	1.002
17	257887	49.831827398394	1.002
17	258230	49.861827398394	1.002
17	258425	49.891827398394	1.002
17	258479	49.921827398394	1.002
17	258495	49.951827398394	1.002
17	258959	49.981827398394	1.002
17	259124	50.011827398394	1.002
17	259134	50.041827398394	1.002
17	259530	50.071827398394	1.002
17	259732	50.101827398394	1.002
17	259742	50.131827398394	1.002
17	260069	50.161827398394	1.002
17	260264	50.191827398394	1.002
17	260318	50.221827398394	1.002
17	260334	50.251827398394	1.002
17	260819	50.281827398394	1.002
17	260984	50.311827398394	1.002
17	260994	50.341827398394	1.002
17	261369	50.371827398394	1.002
17	261571	50.401827398394	1.002
17	261581	50.431827398394	1.002
17	261908	50.461827398394	1.002
17	262103	50.491827398394	1.002
17	262157	50.521827398394	1.002
17	262173	50.551827398394	1.002
17	262642	50.581827398394	1.002
17	262807	50.611827398394	1.002
17	262817	50.641827398394	1.002
17	263192	50.671827398394	1.002
17	263394	50.701827398394	1.002
17	263404	50.731827398394	1.002
17	263736	50.761827398394	1.002
17	263931	50.791827398394	1.002
17	263985	50.821827398394	1.002
17	264001	50.851827398394	1.002
17	264486	50.881827398394	1.002
17	264651	50.911827398394	1.002
17	264661	50.941827398394	1.002
17	265052	50.971827398394	1.002
17	265254	51.001827398394	1.002
17	265264	51.031827398394	1.002
17	265634	51.061827398394	1.002
17	265829	51.091827398394	1.002
17	265883	51.121827398394	1.002
17	265899	51.151827398394	1.002
17	266368	51.181827398394	1.002
17	266533	51.211827398394	1.002
17	266543	51.241827398394	1.002
17	266923	51.271827398394	1.002
17	267125	51.301827398394	1.002
17	267135	51.331827398394	1.002
17	267478	51.361827398394	1.002
17	267673	51.391827398394	1.002
17	267727	51.421827398394	1.002
17	267743	51.451827398394	1.002
17	268244	51.481827398394	1.002
17	268409	51.511827398394	1.002
17	268419	51.541827398394	1.002
17	268799	51.571827398394	1.002
17	269001	51.601827398394	1.002
17	269011	51.631827398394	1.002
17	269370	51.661827398394	1.002
17	269565	51.691827398394	1.002
17	269619	51.721827398394	1.002
17	269635	51.751827398394	1.002
17	270109	51.781827398394	1.002
17	270274	51.811827398394	1.002
17	270284	51.841827398394	1.002
17	270664	51.871827398394	1.002
17	270866	51.901827398394	1.002
17	270876	51.931827398394	1.002
17	271219	51.961827398394	1.002
17	271414	51.991827398394	1.002
17	271468	52.021827398394	1.002
17	271484	52.051827398394	1.002
17	271953	52.081827398394	1.002
17	272118	52.111827398394	1.002
17	272128	52.141827398394	1.002
17	272508	52.171827398394	1.002
17	272710	52.201827398394	1.002
17	272720	52.231827398394	1.002
17	273052	52.261827398394	1.002
17	273247	52.291827398394	1.002
17	273301	52.321827398394	1.002
17	273317	52.351827398394	1.002
17	273786	52.381827398394	1.002
17	273951	52.411827398394	1.002
17	273961	52.441827398394	1.002
17	274368	52.471827398394	1.002
17	274570	52.501827398394	1.002
17	274580	52.531827398394	1.002
17	274923	52.561827398394	1.002
17	275118	52.591827398394	1.002
17	275172	52.621827398394	1.002
17	275188	52.651827398394	1.002
17	275657	52.681827398394	1.002
17	275822	52.711827398394	1.002
17	275832	52.741827398394	1.002
17	276223	52.771827398394	1.002
17	276425	52.801827398394	1.002
17	276435	52.831827398394	1.002
17	276762	52.861827398394	1.002
17	276957	52.891827398394	1.002
17	277011	52.921827398394	1.002
17	277027	52.951827398394	1.002
17	277501	52.981827398394	1.002
17	277666	53.011827398394	1.002
17	277676	53.041827398394	1.002
17	278083	53.071827398394	1.002
17	278285	53.101827398394	1.002
17	278295	53.131827398394	1.002
17	278643	53.161827398394	1.002
17	278838	53.191827398394	1.002
17	278892	53.221827398394	1.002
17	278908	53.251827398394	1.002
17	279388	53.281827398394	1.002
17	279553	53.311827398394	1.002
17	279563	53.341827398394	1.002
17	279938	53.371827398394	1.002
17	280140	53.401827398394	1.002
17	280150	53.431827398394	1.002
17	280477	53.461827398394	1.002
17	280672	53.491827398394	1.002
17	280726	53.521827398394	1.002
17	280742	53.551827398394	1.002
17	281216	53.581827398394	1.002
17	281381	53.611827398394	1.002
17	281391	53.641827398394	1.002
17	281776	53.671827398394	1.002
17	281978	53.701827398394	1.002
17	281988	53.731827398394	1.002
17	282342	53.761827398394	1.002
17	282537	53.791827398394	1.002
17	282591	53.821827398394	1.002
17	282607	53.851827398394	1.002
17	283097	53.881827398394	1.002
17	283262	53.911827398394	1.002
17	283272	53.941827398394	1.002
17	283668	53.971827398394	1.002
17	283870	54.001827398394	1.002
17	283880	54.031827398394	1.002
17	284223	54.061827398394	1.002
17	284418	54.091827398394	1.002
17	284472	54.121827398394	1.002
17	284488	54.151827398394	1.002
17	284973	54.181827398394	1.002
17	285138	54.211827398394	1.002
17	285148	54.241827398394	1.002
17	285539	54.271827398394	1.002
17	285741	54.301827398394	1.002
17	285751	54.331827398394	1.002
17	286099	54.361827398394	1.002
17	286294	54.391827398394	1.002
17	286348	54.421827398394	1.002
17	286364	54.451827398394	1.002
17	286838	54.481827398394	1.002
17	287003	54.511827398394	1.002
17	287013	54.541827398394	1.002
17	287409	54.571827398394	1.002
17	287611	54.601827398394	1.002
17	287621	54.631827398394	1.002
17	287980	54.661827398394	1.002
17	288175	54.691827398394	1.002
17	288229	54.721827398394	1.002
17	288245	54.751827398394	1.002
17	288730	54.781827398394	1.002
17	288895	54.811827398394	1.002
17	288905	54.841827398394	1.002
17	289285	54.871827398394	1.002
17	289487	54.901827398394	1.002
17	289497	54.931827398394	1.002
17	289856	54.961827398394	1.002
17	290051	54.991827398394	1.002
17	290105	55.021827398394	1.002
17	290121	55.051827398394	1.002
17	290590	55.081827398394	1.002
17	290755	55.111827398394	1.002
17	290765	55.141827398394	1.002
17	291156	55.171827398394	1.002
17	291358	55.201827398394	1.002
17	291368	55.231827398394	1.002
17	291695	55.261827398394	1.002
17	291890	55.291827398394	1.002
17	291944	55.321827398394	1.002
17	291960	55.351827398394	1.002
17	292429	55.381827398394	1.002
17	292594	55.411827398394	1.002
17	292604	55.441827398394	1.002
17	292979	55.471827398394	1.002
17	293181	55.501827398394	1.002
17	293191	55.531827398394	1.002
17	293529	55.561827398394	1.002
17	293724	55.591827398394	1.002
17	293778	55.621827398394	1.002
17	293794	55.651827398394	1.002
17	294252	55.681827398394	1.002
17	294417	55.711827398394	1.002
17	294427	55.741827398394	1.002
17	294823	55.771827398394	1.002
17	295025	55.801827398394	1.002
17	295035	55.831827398394	1.002
17	295383	55.861827398394	1.002
17	295578	55.891827398394	1.002
17	295632	55.921827398394	1.002
17	295648	55.951827398394	1.002
17	296122	55.981827398394	1.002
17	296287	56.011827398394	1.002
17	296297	56.041827398394	1.002
17	296688	56.071827398394	1.002
17	296890	56.101827398394	1.002
17	296900	56.131827398394	1.002
17	297254	56.161827398394	1.002
17	297449	56.191827398394	1.002
17	297503	56.221827398394	1.002
17	297519	56.251827398394	1.002
17	297993	56.281827398394	1.002
17	298158	56.311827398394	1.002
17	298168	56.341827398394	1.002
17	298543	56.371827398394	1.002
17	298745	56.401827398394	1.002
17	298755	56.431827398394	1.002
17	299114	56.461827398394	1.002
17	299309	56.491827398394	1.002
17	299363	56.521827398394	1.002
17	299379	56.551827398394	1.002
17	299848	56.581827398394	1.002
17	300013	56.611827398394	1.002
17	300023	56.641827398394	1.002
17	300419	56.671827398394	1.002
17	300621	56.701827398394	1.002
17	300631	56.731827398394	1.002
17	300963	56.761827398394	1.002
17	301158	56.791827398394	1.002
17	301212	56.821827398394	1.002
17	301228	56.851827398394	1.002
17	301713	56.881827398394	1.002
17	301878	56.911827398394	1.002
17	301888	56.941827398394	1.002
17	302263	56.971827398394	1.002
17	302465	57.001827398394	1.002
17	302475	57.031827398394	1.002
17	302834	57.061827398394	1.002
17	303029	57.091827398394	1.002
17	303083	57.121827398394	1.002
17	303099	57.151827398394	1.002
17	303579	57.181827398394	1.002
17	303744	57.211827398394	1.002
17	303754	57.241827398394	1.002
17	304129	57.271827398394	1.002
17	304331	57.301827398394	1.002
17	304341	57.331827398394	1.002
17	304684	57.361827398394	1.002
17	304879	57.391827398394	1.002
17	304933	57.421827398394	1.002
17	304949	57.451827398394	1.002
17	305418	57.481827398394	1.002
17	305583	57.511827398394	1.002
17	305593	57.541827398394	1.002
17	305984	57.571827398394	1.002
17	306186	57.601827398394	1.002
17	306196	57.631827398394	1.002
17	306539	57.661827398394	1.002
17	306734	57.691827398394	1.002
17	306788	57.721827398394	1.002
17	306804	57.751827398394	1.002
17	307273	57.781827398394	1.002
17	307438	57.811827398394	1.002
17	307448	57.841827398394	1.002
17	307823	57.871827398394	1.002
17	308025	57.901827398394	1.002
17	308035	57.931827398394	1.002
17	308362	57.961827398394	1.002
17	308557	57.991827398394	1.002
17	308611	58.021827398394	1.002
17	308627	58.051827398394	1.002
17	309091	58.081827398394	1.002
17	309256	58.111827398394	1.002
17	309266	58.141827398394	1.002
17	309657	58.171827398394	1.002
17	309859	58.201827398394	1.002
17	309869	58.231827398394	1.002
17	310196	58.261827398394	1.002
17	310391	58.291827398394	1.002
17	310445	58.321827398394	1.002
17	310461	58.351827398394	1.002
17	310935	58.381827398394	1.002
17	311100	58.411827398394	1.002
17	311110	58.441827398394	1.002
17	311501	58.471827398394	1.002
17	311703	58.501827398394	1.002
17	311713	58.531827398394	1.002
17	312051	58.561827398394	1.002
17	312246	58.591827398394	1.002
17	312300	58.621827398394	1.002
17	312316	58.651827398394	1.002
17	312785	58.681827398394	1.002
17	312950	58.711827398394	1.002
17	312960	58.741827398394	1.002
17	313351	58.771827398394	1.002
17	313553	58.801827398394	1.002
17	313563	58.831827398394	1.002
17	313895	58.861827398394	1.002
17	314090	58.891827398394	1.002
17	314144	58.921827398394	1.002
17	314160	58.951827398394	1.002
17	314629	58.981827398394	1.002
17	314794	59.011827398394	1.002
17	314804	59.041827398394	1.002
17	315195	59.071827398394	1.002
17	315397	59.101827398394	1.002
17	315407	59.131827398394	1.002
17	315745	59.161827398394	1.002
17	315940	59.191827398394	1.002
17	315994	59.221827398394	1.002
17	316010	59.251827398394	1.002
17	316479	59.281827398394	1.002
17	316644	59.311827398394	1.002
17	316654	59.341827398394	1.002
17	317023	59.371827398394	1.002
17	317225	59.401827398394	1.002
17	317235	59.431827398394	1.002
17	317589	59.461827398394	1.002
17	317784	59.491827398394	1.002
17	317838	59.521827398394	1.002
17	317854	59.551827398394	1.002
17	318339	59.581827398394	1.002
17	318504	59.611827398394	1.002
17	318514	59.641827398394	1.002
17	318894	59.671827398394	1.002
17	319096	59.701827398394	1.002
17	319106	59.731827398394	1.002
17	319428	59.761827398394	1.002
17	319623	59.791827398394	1.002
17	319677	59.821827398394	1.002
17	319693	59.851827398394	1.002
17	320162	59.881827398394	1.002
17	320327	59.911827398394	1.002
17	320337	59.941827398394	1.002
17	320728	59.971827398394	1.002
17	320930	60.001827398394	1.002
17	320940	60.031827398394	1.002
17	321262	60.061827398394	1.002
17	321457	60.091827398394	1.002
17	321511	60.121827398394	1.002
17	321527	60.151827398394	1.002
17	322007	60.181827398394	1.002
17	322172	60.211827398394	1.002
17	322182	60.241827398394	1.002
17	322578	60.271827398394	1.002
17	322780	60.301827398394	1.002
17	322790	60.331827398394	1.002
17	323128	60.361827398394	1.002
17	323323	60.391827398394	1.002
17	323377	60.421827398394	1.002
17	323393	60.451827398394	1.002
17	323873	60.481827398394	1.002
17	324038	60.511827398394	1.002
17	324048	60.541827398394	1.002
17	324428	60.571827398394	1.002
17	324630	60.601827398394	1.002
17	324640	60.631827398394	1.002
17	324994	60.661827398394	1.002
17	325189	60.691827398394	1.002
17	325243	60.721827398394	1.002
17	325259	60.751827398394	1.002
17	325728	60.781827398394	1.002
17	325893	60.811827398394	1.002
17	325903	60.841827398394	1.002
17	326267	60.871827398394	1.002
17	326469	60.901827398394	1.002
17	326479	60.931827398394	1.002
17	326806	60.961827398394	1.002
17	327001	60.991827398394	1.002
17	327055	61.021827398394	1.002
17	327071	61.051827398394	1.002
17	327540	61.081827398394	1.002
17	327705	61.111827398394	1.002
17	327715	61.141827398394	1.002
17	328106	61.171827398394	1.002
17	328308	61.201827398394	1.002
17	328318	61.231827398394	1.002
17	328661	61.261827398394	1.002
17	328856	61.291827398394	1.002
17	328910	61.321827398394	1.002
17	328926	61.351827398394	1.002
17	329395	61.381827398394	1.002
17	329560	61.411827398394	1.002
17	329570	61.441827398394	1.002
17	329977	61.471827398394	1.002
17	330179	61.501827398394	1.002
17	330189	61.531827398394	1.002
17	330532	61.561827398394	1.002
17	330727	61.591827398394	1.002
17	330781	61.621827398394	1.002
17	330797	61.651827398394	1.002
17	331271	61.681827398394	1.002
16	25	0.541827398394	1
16	42	0.571827398394	2
16	60	0.601827398394	3
16	62	0.631827398394	4
16	92	0.661827398394	5
16	107	0.691827398394	6
16	125	0.721827398394	7
16	129	0.751827398394	8
16	157	0.781827398394	9
16	175	0.811827398394	10
16	177	0.841827398394	11
16	207	0.871827398394	12
16	225	0.901827398394	13
16	227	0.931827398394	14
16	257	0.961827398394	15
16	272	0.991827398394	16
16	290	1.021827398394	17
16	294	1.051827398394	18
16	322	1.081827398394	19
16	340	1.111827398394	20
16	342	1.141827398394	21
16	372	1.171827398394	22
16	390	1.201827398394	23
16	392	1.231827398394	24
16	422	1.261827398394	25
16	437	1.291827398394	26
16	455	1.321827398394	27
16	459	1.351827398394	28
16	487	1.381827398394	29
16	505	1.411827398394	30
16	507	1.441827398394	31
16	537	1.471827398394	32
16	555	1.501827398394	33
16	557	1.531827398394	34
16	587	1.561827398394	35
16	602	1.591827398394	36
16	620	1.621827398394	37
16	624	1.651827398394	38
16	652	1.681827398394	39
16	670	1.711827398394	40
16	672	1.741827398394	41
16	702	1.771827398394	42
16	720	1.801827398394	43
16	722	1.831827398394	44
16	752	1.861827398394	45
16	767	1.891827398394	46
16	785	1.921827398394	47
16	789	1.951827398394	48
16	817	1.981827398394	49
16	835	2.011827398394	50
16	837	2.041827398394	51
16	867	2.071827398394	52
16	885	2.101827398394	53
16	887	2.131827398394	54
16	917	2.161827398394	55
16	932	2.191827398394	56
16	950	2.221827398394	57
16	954	2.251827398394	58
16	982	2.281827398394	59
16	1000	2.311827398394	60
16	1002	2.341827398394	61
16	1032	2.371827398394	62
16	1050	2.401827398394	63
16	1052	2.431827398394	64
16	1082	2.461827398394	65
16	1097	2.491827398394	66
16	1115	2.521827398394	67
16	1119	2.551827398394	68
16	1147	2.581827398394	69
16	1165	2.611827398394	70
16	1167	2.641827398394	71
16	1197	2.671827398394	72
16	1215	2.701827398394	73
16	1217	2.731827398394	74
16	1247	2.761827398394	75
16	1262	2.791827398394	76
16	1280	2.821827398394	77
16	1284	2.851827398394	78
16	1312	2.881827398394	79
16	1330	2.911827398394	80
16	1332	2.941827398394	81
16	1362	2.971827398394	82
16	1380	3.001827398394	83
16	1382	3.031827398394	84
16	1412	3.061827398394	85
16	1427	3.091827398394	86
16	1445	3.121827398394	87
16	1450	3.151827398394	88
16	1490	3.181827398394	89
16	1515	3.211827398394	90
16	1517	3.241827398394	91
16	1581	3.271827398394	93
16	1627	3.301827398394	95
16	1631	3.331827398394	97
16	1707	3.361827398394	99
16	1749	3.391827398394	101
16	1776	3.421827398394	103
16	1783	3.451827398394	105
16	1882	3.481827398394	107
16	1928	3.511827398394	109
16	1932	3.541827398394	111
16	2015	3.571827398394	113
16	2061	3.601827398394	115
16	2065	3.631827398394	117
16	2141	3.661827398394	119
16	2183	3.691827398394	121
16	2210	3.721827398394	123
16	2217	3.751827398394	125
16	2316	3.781827398394	127
16	2362	3.811827398394	129
16	2366	3.841827398394	131
16	2449	3.871827398394	133
16	2495	3.901827398394	135
16	2499	3.931827398394	137
16	2582	3.961827398394	139
16	2624	3.991827398394	141
16	2651	4.021827398394	143
16	2658	4.051827398394	145
16	2757	4.081827398394	147
16	2803	4.111827398394	149
16	2807	4.141827398394	151
16	2890	4.171827398394	153
16	2936	4.201827398394	155
16	2940	4.231827398394	157
16	3023	4.261827398394	159
16	3065	4.291827398394	161
16	3092	4.321827398394	163
16	3099	4.351827398394	165
16	3191	4.381827398394	167
16	3237	4.411827398394	169
16	3241	4.441827398394	171
16	3324	4.471827398394	173
16	3370	4.501827398394	175
16	3374	4.531827398394	177
16	3457	4.561827398394	179
16	3499	4.591827398394	181
16	3526	4.621827398394	183
16	3533	4.651827398394	185
16	3632	4.681827398394	187
16	3678	4.711827398394	189
16	3682	4.741827398394	191
16	3765	4.771827398394	193
16	3811	4.801827398394	195
16	3815	4.831827398394	197
16	3891	4.861827398394	199
16	3933	4.891827398394	201
16	3960	4.921827398394	203
16	3967	4.951827398394	205
16	4059	4.981827398394	207
16	4105	5.011827398394	209
16	4109	5.041827398394	211
16	4192	5.071827398394	213
16	4238	5.101827398394	215
16	4242	5.131827398394	217
16	4325	5.161827398394	219
16	4367	5.191827398394	221
16	4394	5.221827398394	223
16	4401	5.251827398394	225
16	4500	5.281827398394	227
16	4546	5.311827398394	229
16	4550	5.341827398394	231
16	4633	5.371827398394	233
16	4679	5.401827398394	235
16	4683	5.431827398394	237
16	4759	5.461827398394	239
16	4801	5.491827398394	241
16	4828	5.521827398394	243
16	4835	5.551827398394	245
16	4934	5.581827398394	247
16	4980	5.611827398394	249
16	4984	5.641827398394	251
16	5067	5.671827398394	253
16	5113	5.701827398394	255
16	5117	5.731827398394	257
16	5193	5.761827398394	259
16	5235	5.791827398394	261
16	5262	5.821827398394	263
16	5269	5.851827398394	265
16	5368	5.881827398394	267
16	5414	5.911827398394	269
16	5418	5.941827398394	271
16	5501	5.971827398394	273
16	5547	6.001827398394	275
16	5551	6.031827398394	277
16	5627	6.061827398394	279
16	5669	6.091827398394	281
16	5696	6.121827398394	283
16	5704	6.151827398394	285
16	5833	6.181827398394	287
16	5892	6.211827398394	289
16	5896	6.241827398394	291
16	6004	6.271827398394	293
16	6063	6.301827398394	295
16	6067	6.331827398394	297
16	6175	6.361827398394	299
16	6229	6.391827398394	301
16	6263	6.421827398394	303
16	6271	6.451827398394	305
16	6400	6.481827398394	307
16	6459	6.511827398394	309
16	6463	6.541827398394	311
16	6571	6.571827398394	313
16	6630	6.601827398394	315
16	6634	6.631827398394	317
16	6732	6.661827398394	319
16	6786	6.691827398394	321
16	6820	6.721827398394	323
16	6828	6.751827398394	325
16	6947	6.781827398394	327
16	7006	6.811827398394	329
16	7010	6.841827398394	331
16	7118	6.871827398394	333
16	7177	6.901827398394	335
16	7181	6.931827398394	337
16	7289	6.961827398394	339
16	7370	6.991827398394	342
16	7406	7.021827398394	345
16	7416	7.051827398394	348
16	7612	7.081827398394	351
16	7698	7.111827398394	354
16	7704	7.141827398394	357
16	7854	7.171827398394	360
16	7940	7.201827398394	363
16	7946	7.231827398394	366
16	8096	7.261827398394	369
16	8177	7.291827398394	372
16	8213	7.321827398394	375
16	8223	7.351827398394	378
16	8419	7.381827398394	381
16	8505	7.411827398394	384
16	8511	7.441827398394	387
16	8661	7.471827398394	390
16	8747	7.501827398394	393
16	8753	7.531827398394	396
16	8893	7.561827398394	399
16	8974	7.591827398394	402
16	9010	7.621827398394	405
16	9020	7.651827398394	408
16	9216	7.681827398394	411
16	9302	7.711827398394	414
16	9308	7.741827398394	417
16	9468	7.771827398394	420
16	9554	7.801827398394	423
16	9560	7.831827398394	426
16	9710	7.861827398394	429
16	9791	7.891827398394	432
16	9827	7.921827398394	435
16	9837	7.951827398394	438
16	10043	7.981827398394	441
16	10129	8.011827398394	444
16	10135	8.041827398394	447
16	10285	8.071827398394	450
16	10371	8.101827398394	453
16	10377	8.131827398394	456
16	10537	8.161827398394	459
16	10618	8.191827398394	462
16	10654	8.221827398394	465
16	10664	8.251827398394	468
16	10860	8.281827398394	471
16	10946	8.311827398394	474
16	10952	8.341827398394	477
16	11102	8.371827398394	480
16	11188	8.401827398394	483
16	11194	8.431827398394	486
16	11337	8.461827398394	489
16	11418	8.491827398394	492
16	11454	8.521827398394	495
16	11464	8.551827398394	498
16	11660	8.581827398394	501
16	11746	8.611827398394	504
16	11752	8.641827398394	507
16	11902	8.671827398394	510
16	11988	8.701827398394	513
16	11994	8.731827398394	516
16	12154	8.761827398394	519
16	12235	8.791827398394	522
16	12271	8.821827398394	525
16	12281	8.851827398394	528
16	12487	8.881827398394	531
16	12573	8.911827398394	534
16	12579	8.941827398394	537
16	12729	8.971827398394	540
16	12815	9.001827398394	543
16	12821	9.031827398394	546
16	12971	9.061827398394	549
16	13052	9.091827398394	552
16	13088	9.121827398394	555
16	13099	9.151827398394	558
16	13353	9.181827398394	561
16	13458	9.211827398394	564
16	13464	9.241827398394	567
16	13649	9.271827398394	570
16	13754	9.301827398394	573
16	13760	9.331827398394	576
16	13935	9.361827398394	579
16	14034	9.391827398394	582
16	14077	9.421827398394	585
16	14088	9.451827398394	588
16	14320	9.481827398394	591
16	14425	9.511827398394	594
16	14431	9.541827398394	597
16	14628	9.571827398394	600
16	14733	9.601827398394	603
16	14739	9.631827398394	606
16	14936	9.661827398394	609
16	15068	9.691827398394	613
16	15113	9.721827398394	617
16	15126	9.751827398394	621
16	15462	9.781827398394	625
16	15600	9.811827398394	629
16	15608	9.841827398394	633
16	15847	9.871827398394	637
16	15985	9.901827398394	641
16	15993	9.931827398394	645
16	16241	9.961827398394	649
16	16373	9.991827398394	653
16	16418	10.021827398394	657
16	16431	10.051827398394	661
16	16767	10.081827398394	665
16	16905	10.111827398394	669
16	16913	10.141827398394	673
16	17152	10.171827398394	677
16	17290	10.201827398394	681
16	17298	10.231827398394	685
16	17546	10.261827398394	689
16	17678	10.291827398394	693
16	17723	10.321827398394	697
16	17736	10.351827398394	701
16	18050	10.381827398394	705
16	18188	10.411827398394	709
16	18196	10.441827398394	713
16	18444	10.471827398394	717
16	18582	10.501827398394	721
16	18590	10.531827398394	725
16	18838	10.561827398394	729
16	18970	10.591827398394	733
16	19015	10.621827398394	737
16	19028	10.651827398394	741
16	19346	10.681827398394	745
16	19484	10.711827398394	749
16	19492	10.741827398394	753
16	19740	10.771827398394	757
16	19878	10.801827398394	761
16	19886	10.831827398394	765
16	20103	10.861827398394	769
16	20235	10.891827398394	773
16	20280	10.921827398394	777
16	20293	10.951827398394	781
16	20616	10.981827398394	785
16	20754	11.011827398394	789
16	20762	11.041827398394	793
16	20997	11.071827398394	797
16	21135	11.101827398394	801
16	21143	11.131827398394	805
16	21378	11.161827398394	809
16	21510	11.191827398394	813
16	21555	11.221827398394	817
16	21568	11.251827398394	821
16	21882	11.281827398394	825
16	22020	11.311827398394	829
16	22028	11.341827398394	833
16	22276	11.371827398394	837
16	22414	11.401827398394	841
16	22422	11.431827398394	845
16	22657	11.461827398394	849
16	22789	11.491827398394	853
[...]
14	226915	44.800253279723	0.002
14	226939	44.850253279723	0.001
14	227576	44.900253279723	0.002
14	227596	44.950253279723	0.001
14	228181	45.000253279723	0.002
14	228205	45.050253279723	0.001
14	228775	45.100253279723	0.002
14	228799	45.150253279723	0.001
14	229447	45.200253279723	0.002
14	229467	45.250253279723	0.001
14	230068	45.300253279723	0.002
14	230092	45.350253279723	0.001
14	230657	45.400253279723	0.002
14	230681	45.450253279723	0.001
14	231313	45.500253279723	0.002
14	231333	45.550253279723	0.001
14	231902	45.600253279723	0.002
14	231926	45.650253279723	0.001
14	232480	45.700253279723	0.002
14	232504	45.750253279723	0.001
14	233152	45.800253279723	0.002
14	233172	45.850253279723	0.001
14	233773	45.900253279723	0.002
14	233797	45.950253279723	0.001
14	234383	46.000253279723	0.002
14	234407	46.050253279723	0.001
14	235039	46.100253279723	0.002
14	235059	46.150253279723	0.001
14	235622	46.200253279723	0.002
14	235646	46.250253279723	0.001
14	236211	46.300253279723	0.002
14	236235	46.350253279723	0.001
14	236883	46.400253279723	0.002
14	236903	46.450253279723	0.001
14	237488	46.500253279723	0.002
14	237512	46.550253279723	0.001
14	238077	46.600253279723	0.002
14	238101	46.650253279723	0.001
14	238728	46.700253279723	0.002
14	238748	46.750253279723	0.001
14	239322	46.800253279723	0.002
14	239346	46.850253279723	0.001
14	239916	46.900253279723	0.002
14	239940	46.950253279723	0.001
14	240583	47.000253279723	0.002
14	240603	47.050253279723	0.001
14	241161	47.100253279723	0.002
14	241185	47.150253279723	0.001
14	241750	47.200253279723	0.002
14	241774	47.250253279723	0.001
14	242417	47.300253279723	0.002
14	242437	47.350253279723	0.001
14	243038	47.400253279723	0.002
14	243062	47.450253279723	0.001
14	243621	47.500253279723	0.002
14	243645	47.550253279723	0.001
14	244293	47.600253279723	0.002
14	244313	47.650253279723	0.001
14	244903	47.700253279723	0.002
14	244927	47.750253279723	0.001
14	245497	47.800253279723	0.002
14	245521	47.850253279723	0.001
14	246158	47.900253279723	0.002
14	246178	47.950253279723	0.001
14	246768	48.000253279723	0.002
14	246792	48.050253279723	0.001
14	247357	48.100253279723	0.002
14	247381	48.150253279723	0.001
14	248013	48.200253279723	0.002
14	248033	48.250253279723	0.001
14	248607	48.300253279723	0.002
14	248631	48.350253279723	0.001
14	249196	48.400253279723	0.002
14	249220	48.450253279723	0.001
14	249836	48.500253279723	0.002
14	249856	48.550253279723	0.001
14	250441	48.600253279723	0.002
14	250465	48.650253279723	0.001
14	251013	48.700253279723	0.002
14	251037	48.750253279723	0.001
14	251669	48.800253279723	0.002
14	251689	48.850253279723	0.001
14	252290	48.900253279723	0.002
14	252314	48.950253279723	0.001
14	252884	49.000253279723	0.002
14	252908	49.050253279723	0.001
14	253535	49.100253279723	0.002
14	253555	49.150253279723	0.001
14	254124	49.200253279723	0.002
14	254148	49.250253279723	0.001
14	254718	49.300253279723	0.002
14	254742	49.350253279723	0.001
14	255374	49.400253279723	0.002
14	255394	49.450253279723	0.001
14	255995	49.500253279723	0.002
14	256019	49.550253279723	0.001
14	256605	49.600253279723	0.002
14	256629	49.650253279723	0.001
14	257266	49.700253279723	0.002
14	257286	49.750253279723	0.001
14	257876	49.800253279723	0.002
14	257900	49.850253279723	0.001
14	258470	49.900253279723	0.002
14	258494	49.950253279723	0.001
14	259121	50.000253279723	0.002
14	259141	50.050253279723	0.001
14	259731	50.100253279723	0.002
14	259755	50.150253279723	0.001
14	260309	50.200253279723	0.002
14	260333	50.250253279723	0.001
14	260981	50.300253279723	0.002
14	261001	50.350253279723	0.001
14	261570	50.400253279723	0.002
14	261594	50.450253279723	0.001
14	262148	50.500253279723	0.002
14	262172	50.550253279723	0.001
14	262804	50.600253279723	0.002
14	262824	50.650253279723	0.001
14	263393	50.700253279723	0.002
14	263417	50.750253279723	0.001
14	263976	50.800253279723	0.002
14	264000	50.850253279723	0.001
14	264648	50.900253279723	0.002
14	264668	50.950253279723	0.001
14	265253	51.000253279723	0.002
14	265277	51.050253279723	0.001
14	265874	51.100253279723	0.002
14	265898	51.150253279723	0.001
14	266530	51.200253279723	0.002
14	266550	51.250253279723	0.001
14	267124	51.300253279723	0.002
14	267148	51.350253279723	0.001
14	267718	51.400253279723	0.002
14	267742	51.450253279723	0.001
14	268406	51.500253279723	0.002
14	268426	51.550253279723	0.001
14	269000	51.600253279723	0.002
14	269024	51.650253279723	0.001
14	269610	51.700253279723	0.002
14	269634	51.750253279723	0.001
14	270271	51.800253279723	0.002
14	270291	51.850253279723	0.001
14	270865	51.900253279723	0.002
14	270889	51.950253279723	0.001
14	271459	52.000253279723	0.002
14	271483	52.050253279723	0.001
14	272115	52.100253279723	0.002
14	272135	52.150253279723	0.001
14	272709	52.200253279723	0.002
14	272733	52.250253279723	0.001
14	273292	52.300253279723	0.002
14	273316	52.350253279723	0.001
14	273948	52.400253279723	0.002
14	273968	52.450253279723	0.001
14	274569	52.500253279723	0.002
14	274593	52.550253279723	0.001
14	275163	52.600253279723	0.002
14	275187	52.650253279723	0.001
14	275819	52.700253279723	0.002
14	275839	52.750253279723	0.001
14	276424	52.800253279723	0.002
14	276448	52.850253279723	0.001
14	277002	52.900253279723	0.002
14	277026	52.950253279723	0.001
14	277663	53.000253279723	0.002
14	277683	53.050253279723	0.001
14	278284	53.100253279723	0.002
14	278308	53.150253279723	0.001
14	278883	53.200253279723	0.002
14	278907	53.250253279723	0.001
14	279550	53.300253279723	0.002
14	279570	53.350253279723	0.001
14	280139	53.400253279723	0.002
14	280163	53.450253279723	0.001
14	280717	53.500253279723	0.002
14	280741	53.550253279723	0.001
14	281378	53.600253279723	0.002
14	281398	53.650253279723	0.001
14	281977	53.700253279723	0.002
14	282001	53.750253279723	0.001
14	282582	53.800253279723	0.002
14	282606	53.850253279723	0.001
14	283259	53.900253279723	0.002
14	283279	53.950253279723	0.001
14	283869	54.000253279723	0.002
14	283893	54.050253279723	0.001
14	284463	54.100253279723	0.002
14	284487	54.150253279723	0.001
14	285135	54.200253279723	0.002
14	285155	54.250253279723	0.001
14	285740	54.300253279723	0.002
14	285764	54.350253279723	0.001
14	286339	54.400253279723	0.002
14	286363	54.450253279723	0.001
14	287000	54.500253279723	0.002
14	287020	54.550253279723	0.001
14	287610	54.600253279723	0.002
14	287634	54.650253279723	0.001
14	288220	54.700253279723	0.002
14	288244	54.750253279723	0.001
14	288892	54.800253279723	0.002
14	288912	54.850253279723	0.001
14	289486	54.900253279723	0.002
14	289510	54.950253279723	0.001
14	290096	55.000253279723	0.002
14	290120	55.050253279723	0.001
14	290752	55.100253279723	0.002
14	290772	55.150253279723	0.001
14	291357	55.200253279723	0.002
14	291381	55.250253279723	0.001
14	291935	55.300253279723	0.002
14	291959	55.350253279723	0.001
14	292591	55.400253279723	0.002
14	292611	55.450253279723	0.001
14	293180	55.500253279723	0.002
14	293204	55.550253279723	0.001
14	293769	55.600253279723	0.002
14	293793	55.650253279723	0.001
14	294414	55.700253279723	0.002
14	294434	55.750253279723	0.001
14	295024	55.800253279723	0.002
14	295048	55.850253279723	0.001
14	295623	55.900253279723	0.002
14	295647	55.950253279723	0.001
14	296284	56.000253279723	0.002
14	296304	56.050253279723	0.001
14	296889	56.100253279723	0.002
14	296913	56.150253279723	0.001
14	297494	56.200253279723	0.002
14	297518	56.250253279723	0.001
14	298155	56.300253279723	0.002
14	298175	56.350253279723	0.001
14	298744	56.400253279723	0.002
14	298768	56.450253279723	0.001
14	299354	56.500253279723	0.002
14	299378	56.550253279723	0.001
14	300010	56.600253279723	0.002
14	300030	56.650253279723	0.001
14	300620	56.700253279723	0.002
14	300644	56.750253279723	0.001
14	301203	56.800253279723	0.002
14	301227	56.850253279723	0.001
14	301875	56.900253279723	0.002
14	301895	56.950253279723	0.001
14	302464	57.000253279723	0.002
14	302488	57.050253279723	0.001
14	303074	57.100253279723	0.002
14	303098	57.150253279723	0.001
14	303741	57.200253279723	0.002
14	303761	57.250253279723	0.001
14	304330	57.300253279723	0.002
14	304354	57.350253279723	0.001
14	304924	57.400253279723	0.002
14	304948	57.450253279723	0.001
14	305580	57.500253279723	0.002
14	305600	57.550253279723	0.001
14	306185	57.600253279723	0.002
14	306209	57.650253279723	0.001
14	306779	57.700253279723	0.002
14	306803	57.750253279723	0.001
14	307435	57.800253279723	0.002
14	307455	57.850253279723	0.001
14	308024	57.900253279723	0.002
14	308048	57.950253279723	0.001
14	308602	58.000253279723	0.002
14	308626	58.050253279723	0.001
14	309253	58.100253279723	0.002
14	309273	58.150253279723	0.001
14	309858	58.200253279723	0.002
14	309882	58.250253279723	0.001
14	310436	58.300253279723	0.002
14	310460	58.350253279723	0.001
14	311097	58.400253279723	0.002
14	311117	58.450253279723	0.001
14	311702	58.500253279723	0.002
14	311726	58.550253279723	0.001
14	312291	58.600253279723	0.002
14	312315	58.650253279723	0.001
14	312947	58.700253279723	0.002
14	312967	58.750253279723	0.001
14	313552	58.800253279723	0.002
14	313576	58.850253279723	0.001
14	314135	58.900253279723	0.002
14	314159	58.950253279723	0.001
14	314791	59.000253279723	0.002
14	314811	59.050253279723	0.001
14	315396	59.100253279723	0.002
14	315420	59.150253279723	0.001
14	315985	59.200253279723	0.002
14	316009	59.250253279723	0.001
14	316641	59.300253279723	0.002
14	316661	59.350253279723	0.001
14	317224	59.400253279723	0.002
14	317248	59.450253279723	0.001
14	317829	59.500253279723	0.002
14	317853	59.550253279723	0.001
14	318501	59.600253279723	0.002
14	318521	59.650253279723	0.001
14	319095	59.700253279723	0.002
14	319119	59.750253279723	0.001
14	319668	59.800253279723	0.002
14	319692	59.850253279723	0.001
14	320324	59.900253279723	0.002
14	320344	59.950253279723	0.001
14	320929	60.000253279723	0.002
14	320953	60.050253279723	0.001
14	321502	60.100253279723	0.002
14	321526	60.150253279723	0.001
14	322169	60.200253279723	0.002
14	322189	60.250253279723	0.001
14	322779	60.300253279723	0.002
14	322803	60.350253279723	0.001
14	323368	60.400253279723	0.002
14	323392	60.450253279723	0.001
14	324035	60.500253279723	0.002
14	324055	60.550253279723	0.001
14	324629	60.600253279723	0.002
14	324653	60.650253279723	0.001
14	325234	60.700253279723	0.002
14	325258	60.750253279723	0.001
14	325890	60.800253279723	0.002
14	325910	60.850253279723	0.001
14	326468	60.900253279723	0.002
14	326492	60.950253279723	0.001
14	327046	61.000253279723	0.002
14	327070	61.050253279723	0.001
14	327702	61.100253279723	0.002
14	327722	61.150253279723	0.001
14	328307	61.200253279723	0.002
14	328331	61.250253279723	0.001
14	328901	61.300253279723	0.002
14	328925	61.350253279723	0.001
14	329557	61.400253279723	0.002
14	329577	61.450253279723	0.001
14	330178	61.500253279723	0.002
14	330202	61.550253279723	0.001
14	330772	61.600253279723	0.002
14	330796	61.650253279723	0.001
14	331432	61.700253279723	0.002
14	331447	61.750253279723	0.001
14	331859	61.800253279723	0.002
14	331878	61.850253279723	0.001
14	332231	61.900253279723	0.002
14	332252	61.950253279723	0.001
14	332711	62.000253279723	0.002
14	332726	62.050253279723	0.001
14	333151	62.100253279723	0.002
14	333170	62.150253279723	0.001
14	333545	62.200253279723	0.002
14	333566	62.250253279723	0.001
14	334016	62.300253279723	0.002
14	334031	62.350253279723	0.001
14	334456	62.400253279723	0.002
14	334475	62.450253279723	0.001
14	334841	62.500253279723	0.002
14	334862	62.550253279723	0.001
14	335325	62.600253279723	0.002
14	335340	62.650253279723	0.001
14	335739	62.700253279723	0.002
14	335758	62.750253279723	0.001
14	336133	62.800253279723	0.002
14	336154	62.850253279723	0.001
14	336613	62.900253279723	0.002
14	336628	62.950253279723	0.001
14	337053	63.000253279723	0.002
14	337072	63.050253279723	0.001
14	337438	63.100253279723	0.002
14	337459	63.150253279723	0.001
14	337905	63.200253279723	0.002
14	337920	63.250253279723	0.001
14	338332	63.300253279723	0.002
14	338351	63.350253279723	0.001
14	338713	63.400253279723	0.002
14	338734	63.450253279723	0.001
14	339206	63.500253279723	0.002
14	339221	63.550253279723	0.001
14	339633	63.600253279723	0.002
14	339652	63.650253279723	0.001
14	340014	63.700253279723	0.002
14	340035	63.750253279723	0.001
14	340485	63.800253279723	0.002
14	340500	63.850253279723	0.001
14	340903	63.900253279723	0.002
14	340922	63.950253279723	0.001
14	341297	64.000253279723	0.002
14	341318	64.050253279723	0.001
14	341781	64.100253279723	0.002
14	341796	64.150253279723	0.001
14	342208	64.200253279723	0.002
14	342227	64.250253279723	0.001
14	342593	64.300253279723	0.002
14	342614	64.350253279723	0.001
14	343064	64.400253279723	0.002
14	343079	64.450253279723	0.001
14	343482	64.500253279723	0.002
14	343501	64.550253279723	0.001
14	343862	64.600253279723	0.002
14	343878	64.650253279723	0.001
14	344158	64.700253279723	0.002
14	344170	64.750253279723	0.001
14	344437	64.800253279723	0.002
14	344451	64.850253279723	0.001
14	344672	64.900253279723	0.002
14	344688	64.950253279723	0.001
14	344968	65.000253279723	0.002
14	344980	65.050253279723	0.001
14	345237	65.100253279723	0.002
14	345251	65.150253279723	0.001
14	345479	65.200253279723	0.002
14	345495	65.250253279723	0.001
14	345775	65.300253279723	0.002
14	345787	65.350253279723	0.001
14	346054	65.400253279723	0.002
14	346068	65.450253279723	0.001
14	346306	65.500253279723	0.002
14	346322	65.550253279723	0.001
14	346602	65.600253279723	0.002
14	346614	65.650253279723	0.001
14	346881	65.700253279723	0.002
14	346895	65.750253279723	0.001
14	347133	65.800253279723	0.002
14	347149	65.850253279723	0.001
14	347429	65.900253279723	0.002
14	347441	65.950253279723	0.001
14	347708	66.000253279723	0.002
14	347722	66.050253279723	0.001
14	347960	66.100253279723	0.002
14	347976	66.150253279723	0.001
14	348246	66.200253279723	0.002
14	348258	66.250253279723	0.001
14	348525	66.300253279723	0.002
14	348539	66.350253279723	0.001
14	348760	66.400253279723	0.002
14	348776	66.450253279723	0.001
14	349049	66.500253279723	0.002
14	349061	66.550253279723	0.001
14	349328	66.600253279723	0.002
14	349342	66.650253279723	0.001
14	349563	66.700253279723	0.002
14	349579	66.750253279723	0.001
14	349859	66.800253279723	0.002
14	349871	66.850253279723	0.001
14	350128	66.900253279723	0.002
14	350142	66.950253279723	0.001
14	350370	67.000253279723	0.002
14	350386	67.050253279723	0.001
14	350666	67.100253279723	0.002
14	350678	67.150253279723	0.001
14	350945	67.200253279723	0.002
14	350959	67.250253279723	0.001
14	351187	67.300253279723	0.002
14	351203	67.350253279723	0.001
14	351483	67.400253279723	0.002
14	351495	67.450253279723	0.001
14	351752	67.500253279723	0.002
14	351766	67.550253279723	0.001
14	352003	67.600253279723	0.002
14	352014	67.650253279723	0.001
14	352157	67.700253279723	0.002
14	352166	67.750253279723	0.001
14	352311	67.800253279723	0.002
14	352320	67.850253279723	0.001
14	352444	67.900253279723	0.002
14	352455	67.950253279723	0.001
14	352598	68.000253279723	0.002
14	352607	68.050253279723	0.001
14	352752	68.100253279723	0.002
14	352761	68.150253279723	0.001
14	352885	68.200253279723	0.002
14	352896	68.250253279723	0.001
14	353039	68.300253279723	0.002
14	353048	68.350253279723	0.001
14	353186	68.400253279723	0.002
14	353195	68.450253279723	0.001
14	353319	68.500253279723	0.002
14	353330	68.550253279723	0.001
14	353473	68.600253279723	0.002
14	353482	68.650253279723	0.001
14	353620	68.700253279723	0.002
14	353629	68.750253279723	0.001
14	353753	68.800253279723	0.002
14	353764	68.850253279723	0.001
14	353900	68.900253279723	0.002
14	353909	68.950253279723	0.001
14	354054	69.000253279723	0.002
14	354063	69.050253279723	0.001
14	354187	69.100253279723	0.002
14	354198	69.150253279723	0.001
14	354341	69.200253279723	0.002
14	354350	69.250253279723	0.001
14	354495	69.300253279723	0.002
14	354504	69.350253279723	0.001
14	354628	69.400253279723	0.002
14	354639	69.450253279723	0.001
14	354775	69.500253279723	0.002
14	354784	69.550253279723	0.001
14	354929	69.600253279723	0.002
14	354938	69.650253279723	0.001
14	355062	69.700253279723	0.002
14	355073	69.750253279723	0.001
14	355216	69.800253279723	0.002
14	355225	69.850253279723	0.001
14	355363	69.900253279723	0.002
14	355372	69.950253279723	0.001
14	355496	70.000253279723	0.002
14	355507	70.050253279723	0.001
14	355643	70.100253279723	0.002
14	355652	70.150253279723	0.001
14	355797	70.200253279723	0.002
14	355806	70.250253279723	0.001
14	355930	70.300253279723	0.002
14	355941	70.350253279723	0.001
14	356077	70.400253279723	0.002
14	356086	70.450253279723	0.001
14	356231	70.500253279723	0.002
14	356240	70.550253279723	0.001
14	356364	70.600253279723	0.002
14	356375	70.650253279723	0.001
14	356510	70.700253279723	0.002
14	356516	70.750253279723	0.001
14	356575	70.800253279723	0.002
14	356579	70.850253279723	0.001
14	356625	70.900253279723	0.002
14	356631	70.950253279723	0.001
14	356675	71.000253279723	0.002
14	356681	71.050253279723	0.001
14	356740	71.100253279723	0.002
14	356744	71.150253279723	0.001
14	356790	71.200253279723	0.002
14	356796	71.250253279723	0.001
14	356840	71.300253279723	0.002
14	356846	71.350253279723	0.001
14	356905	71.400253279723	0.002
14	356909	71.450253279723	0.001
14	356955	71.500253279723	0.002
14	356961	71.550253279723	0.001
14	357005	71.600253279723	0.002
14	357011	71.650253279723	0.001
14	357070	71.700253279723	0.002
14	357074	71.750253279723	0.001
14	357120	71.800253279723	0.002
14	357126	71.850253279723	0.001
14	357170	71.900253279723	0.002
14	357176	71.950253279723	0.001
14	357235	72.000253279723	0.002
14	357239	72.050253279723	0.001
14	357285	72.100253279723	0.002
14	357291	72.150253279723	0.001
14	357335	72.200253279723	0.002
14	357341	72.250253279723	0.001
14	357400	72.300253279723	0.002
14	357404	72.350253279723	0.001
14	357450	72.400253279723	0.002
14	357456	72.450253279723	0.001
14	357500	72.500253279723	0.002
14	357506	72.550253279723	0.001
14	357565	72.600253279723	0.002
14	357569	72.650253279723	0.001
14	357615	72.700253279723	0.002
14	357621	72.750253279723	0.001
14	357665	72.800253279723	0.002
14	357671	72.850253279723	0.001
14	357730	72.900253279723	0.002
14	357734	72.950253279723	0.001
14	357780	73.000253279723	0.002
14	357786	73.050253279723	0.001
14	357830	73.100253279723	0.002
14	357836	73.150253279723	0.001
14	357895	73.200253279723	0.002
14	357899	73.250253279723	0.001
14	357945	73.300253279723	0.002
14	357951	73.350253279723	0.001
14	357995	73.400253279723	0.002
14	358001	73.450253279723	0.001
14	358060	73.500253279723	0.002
14	358064	73.550253279723	0.001
14	358109	73.600253279723	0.002
14	358110	73.650253279723	0.001
14	358111	73.700253279723	0.002
14	358112	73.750253279723	0.001
14	358113	73.800253279723	0.002
14	358114	73.850253279723	0.001
14	358115	73.900253279723	0.002
14	358116	73.950253279723	0.001
14	358117	74.000253279723	0.002
14	358118	74.050253279723	0.001
14	358119	74.100253279723	0.002
14	358120	74.150253279723	0.001
14	358121	74.200253279723	0.002
14	358122	74.250253279723	0.001
14	358123	74.300253279723	0.002
14	358124	74.350253279723	0.001
14	358125	74.400253279723	0.002
14	358126	74.450253279723	0.001
14	358127	74.500253279723	0.002
14	358128	74.550253279723	0.001
14	358129	74.600253279723	0.002
14	358130	74.650253279723	0.001
14	358131	74.700253279723	0.002
14	358132	74.750253279723	0.001
14	358133	74.800253279723	0.002
14	358134	74.850253279723	0.001
14	358135	74.900253279723	0.002
14	358136	74.950253279723	0.001
14	358137	75.000253279723	0.002
14	358138	75.050253279723	0.001
14	358139	75.100253279723	0.002
14	358140	75.150253279723	0.001
14	358141	75.200253279723	0.002
14	358142	75.250253279723	0.001
14	358143	75.300253279723	0.002
14	358144	75.350253279723	0.001
14	358145	75.400253279723	0.002
14	358146	75.450253279723	0.001
14	358147	75.500253279723	0.002
14	358148	75.550253279723	0.001
14	358149	75.600253279723	0.002
14	358150	75.650253279723	0.001
14	358151	75.700253279723	0.002
14	358152	75.750253279723	0.001
14	358153	75.800253279723	0.002
14	358154	75.850253279723	0.001
14	358155	75.900253279723	0.002
14	358156	75.950253279723	0.001
