version 2
run VoIP-30ms_280B-3-20160923-14:13:05-14661
attr configname VoIP-30ms_280B
attr datetime 20160923-14:13:05
attr experiment VoIP-30ms_280B
attr inifile omnetpp.ini
attr iterationvars ""
attr iterationvars2 $repetition=3
attr measurement ""
attr network SymScenerio
attr processid 14661
attr repetition 3
attr replication #3
attr resultdir results
attr runnumber 3
attr seedset 3
param **.coreDebug false
param **.debug false
param *.**.nic.mac1609_4.bitrate 18Mbps
param *.**.nic.mac1609_4.txPower 20mW
param *.**.nic.mac1609_4.useServiceChannel true
param *.**.nic.phy80211p.analogueModels "xmldoc(\"config.xml\")"
param *.**.nic.phy80211p.decider "xmldoc(\"config.xml\")"
param *.**.nic.phy80211p.sensitivity -89dBm
param *.**.nic.phy80211p.thermalNoise -110dBm
param *.**.nic.phy80211p.usePropagationDelay true
param *.**.nic.phy80211p.useThermalNoise true
param *.annotations.draw false
param *.connectionManager.alpha 2.0
param *.connectionManager.carrierFrequency "5.890e9 Hz"
param *.connectionManager.pMax 20mW
param *.connectionManager.sat -89dBm
param *.connectionManager.sendDirect true
param *.manager.autoShutdown true
param *.manager.host "\"localhost\""
param *.manager.launchConfig "xmldoc(\"map.launchd.xml\")"
param *.manager.margin 25
param *.manager.moduleDisplayString "\"\""
param *.manager.moduleName "\"node\""
param *.manager.moduleType "\"symulacja.veins.nodes.Car\""
param *.manager.port 9999
param *.manager.updateInterval 0.1s
param *.node[*].appl.beaconInterval 1s
param *.node[*].appl.beaconPriority 3
param *.node[*].appl.dataOnSch false
param *.node[*].appl.dataPriority 2
param *.node[*].appl.debug false
param *.node[*].appl.maxOffset 0.005s
param *.node[*].appl.sendBeacons false
param *.node[*].appl.sendData true
param *.node[*].appl.sendVoIP true
param *.node[*].appl.voipInterval 0.030s
param *.node[*].appl.voipLengthBits 2240bits
param *.node[*].appl.voipOnSch true
param *.node[*].appl.voipPriority 3
param *.node[*].applType "\"Sym11p\""
param *.node[*].veinsmobility.x 0
param *.node[*].veinsmobility.y 0
param *.node[*].veinsmobility.z 1.895
param *.node[*].veinsmobilityType "\"symulacja.veins.modules.mobility.traci.TraCIMobility\""
param *.playgroundSizeX 9000m
param *.playgroundSizeY 9000m
param *.playgroundSizeZ 50m
param *.rsu[*].appl.beaconInterval 1s
param *.rsu[*].appl.beaconPriority 3
param *.rsu[*].appl.dataOnSch false
param *.rsu[*].appl.dataPriority 2
param *.rsu[*].appl.debug false
param *.rsu[*].appl.headerLength "256 bit"
param *.rsu[*].appl.maxOffset 0.005s
param *.rsu[*].appl.sendBeacons false
param *.rsu[*].appl.sendData false
param *.rsu[*].appl.sendVoIP false
param *.rsu[*].applType "\"SymRSU11p\""
param *.rsu[0].mobility.x 2160
param *.rsu[0].mobility.y 3100
param *.rsu[0].mobility.z 3
param *.world.use2D false
param *.world.useTorus false

vector 14  SymScenerio.rsu[0].nic.mac1609_4  "Interwały kanałów"  ETV
vector 23  SymScenerio.node[0].veinsmobility  posx  ETV
vector 24  SymScenerio.node[0].veinsmobility  posy  ETV
vector 22  SymScenerio.node[0].nic.mac1609_4  "Interwały kanałów"  ETV
vector 25  SymScenerio.node[0].veinsmobility  speed  ETV
vector 26  SymScenerio.node[0].veinsmobility  acceleration  ETV
vector 27  SymScenerio.node[0].veinsmobility  co2emission  ETV
vector 15  SymScenerio.node[0].appl  "TX Packets"  ETV
vector 16  SymScenerio.node[0].appl  "TX Total"  ETV
vector 17  SymScenerio.node[0].appl  Pakietyzacja  ETV
vector 5  SymScenerio.rsu[0].appl  nodeALL:vector  ETV
attr source  nodeALL
attr title  "Opoznienia ALL, vector"
vector 9  SymScenerio.rsu[0].appl  "RX Packet"  ETV
vector 0  SymScenerio.rsu[0].appl  node0:vector  ETV
attr source  node0
attr title  "Opoznienia node0, vector"
vector 36  SymScenerio.node[1].veinsmobility  posx  ETV
vector 37  SymScenerio.node[1].veinsmobility  posy  ETV
vector 35  SymScenerio.node[1].nic.mac1609_4  "Interwały kanałów"  ETV
vector 38  SymScenerio.node[1].veinsmobility  speed  ETV
vector 39  SymScenerio.node[1].veinsmobility  acceleration  ETV
vector 40  SymScenerio.node[1].veinsmobility  co2emission  ETV
vector 28  SymScenerio.node[1].appl  "TX Packets"  ETV
vector 29  SymScenerio.node[1].appl  "TX Total"  ETV
vector 30  SymScenerio.node[1].appl  Pakietyzacja  ETV
vector 1  SymScenerio.rsu[0].appl  node1:vector  ETV
attr source  node1
attr title  "Opoznienia node1, vector"
vector 49  SymScenerio.node[2].veinsmobility  posx  ETV
vector 50  SymScenerio.node[2].veinsmobility  posy  ETV
vector 48  SymScenerio.node[2].nic.mac1609_4  "Interwały kanałów"  ETV
vector 51  SymScenerio.node[2].veinsmobility  speed  ETV
vector 52  SymScenerio.node[2].veinsmobility  acceleration  ETV
vector 53  SymScenerio.node[2].veinsmobility  co2emission  ETV
vector 41  SymScenerio.node[2].appl  "TX Packets"  ETV
vector 42  SymScenerio.node[2].appl  "TX Total"  ETV
vector 43  SymScenerio.node[2].appl  Pakietyzacja  ETV
vector 2  SymScenerio.rsu[0].appl  node2:vector  ETV
attr source  node2
attr title  "Opoznienia node2, vector"
vector 62  SymScenerio.node[3].veinsmobility  posx  ETV
vector 63  SymScenerio.node[3].veinsmobility  posy  ETV
vector 61  SymScenerio.node[3].nic.mac1609_4  "Interwały kanałów"  ETV
vector 64  SymScenerio.node[3].veinsmobility  speed  ETV
vector 65  SymScenerio.node[3].veinsmobility  acceleration  ETV
vector 66  SymScenerio.node[3].veinsmobility  co2emission  ETV
vector 54  SymScenerio.node[3].appl  "TX Packets"  ETV
vector 55  SymScenerio.node[3].appl  "TX Total"  ETV
vector 56  SymScenerio.node[3].appl  Pakietyzacja  ETV
vector 3  SymScenerio.rsu[0].appl  node3:vector  ETV
attr source  node3
attr title  "Opoznienia node3, vector"
vector 75  SymScenerio.node[4].veinsmobility  posx  ETV
vector 76  SymScenerio.node[4].veinsmobility  posy  ETV
vector 74  SymScenerio.node[4].nic.mac1609_4  "Interwały kanałów"  ETV
vector 77  SymScenerio.node[4].veinsmobility  speed  ETV
vector 78  SymScenerio.node[4].veinsmobility  acceleration  ETV
vector 79  SymScenerio.node[4].veinsmobility  co2emission  ETV
vector 67  SymScenerio.node[4].appl  "TX Packets"  ETV
vector 68  SymScenerio.node[4].appl  "TX Total"  ETV
vector 69  SymScenerio.node[4].appl  Pakietyzacja  ETV
vector 4  SymScenerio.rsu[0].appl  node4:vector  ETV
attr source  node4
attr title  "Opoznienia node4, vector"
17	47	0.976473478922	1.002
17	65	1.006473478922	1.002
17	67	1.036473478922	1.002
17	97	1.066473478922	1.002
17	112	1.096473478922	1.002
17	130	1.126473478922	1.002
17	147	1.156473478922	1.002
17	162	1.186473478922	1.002
17	180	1.216473478922	1.002
17	182	1.246473478922	1.002
17	212	1.276473478922	1.002
17	230	1.306473478922	1.002
17	232	1.336473478922	1.002
17	262	1.366473478922	1.002
17	277	1.396473478922	1.002
17	295	1.426473478922	1.002
17	312	1.456473478922	1.002
17	327	1.486473478922	1.002
17	345	1.516473478922	1.002
17	347	1.546473478922	1.002
17	377	1.576473478922	1.002
17	395	1.606473478922	1.002
17	397	1.636473478922	1.002
17	427	1.666473478922	1.002
17	442	1.696473478922	1.002
17	460	1.726473478922	1.002
17	477	1.756473478922	1.002
17	492	1.786473478922	1.002
17	510	1.816473478922	1.002
17	512	1.846473478922	1.002
17	542	1.876473478922	1.002
17	560	1.906473478922	1.002
17	562	1.936473478922	1.002
17	592	1.966473478922	1.002
17	607	1.996473478922	1.002
17	625	2.026473478922	1.002
17	642	2.056473478922	1.002
17	657	2.086473478922	1.002
17	675	2.116473478922	1.002
17	677	2.146473478922	1.002
17	707	2.176473478922	1.002
17	725	2.206473478922	1.002
17	727	2.236473478922	1.002
17	757	2.266473478922	1.002
17	772	2.296473478922	1.002
17	790	2.326473478922	1.002
17	807	2.356473478922	1.002
17	822	2.386473478922	1.002
17	840	2.416473478922	1.002
17	842	2.446473478922	1.002
17	872	2.476473478922	1.002
17	890	2.506473478922	1.002
17	892	2.536473478922	1.002
17	922	2.566473478922	1.002
17	937	2.596473478922	1.002
17	955	2.626473478922	1.002
17	972	2.656473478922	1.002
17	987	2.686473478922	1.002
17	1005	2.716473478922	1.002
17	1007	2.746473478922	1.002
17	1037	2.776473478922	1.002
17	1055	2.806473478922	1.002
17	1057	2.836473478922	1.002
17	1087	2.866473478922	1.002
17	1102	2.896473478922	1.002
17	1120	2.926473478922	1.002
17	1137	2.956473478922	1.002
17	1152	2.986473478922	1.002
17	1170	3.016473478922	1.002
17	1172	3.046473478922	1.002
17	1202	3.076473478922	1.002
17	1220	3.106473478922	1.002
17	1222	3.136473478922	1.002
17	1265	3.166473478922	1.002
17	1286	3.196473478922	1.002
17	1311	3.226473478922	1.002
17	1335	3.256473478922	1.002
17	1356	3.286473478922	1.002
17	1381	3.316473478922	1.002
17	1383	3.346473478922	1.002
17	1426	3.376473478922	1.002
17	1451	3.406473478922	1.002
17	1453	3.436473478922	1.002
17	1496	3.466473478922	1.002
17	1517	3.496473478922	1.002
17	1542	3.526473478922	1.002
17	1566	3.556473478922	1.002
17	1587	3.586473478922	1.002
17	1612	3.616473478922	1.002
17	1614	3.646473478922	1.002
17	1657	3.676473478922	1.002
17	1682	3.706473478922	1.002
17	1684	3.736473478922	1.002
17	1748	3.766473478922	1.002
17	1790	3.796473478922	1.002
17	1817	3.826473478922	1.002
17	1881	3.856473478922	1.002
17	1923	3.886473478922	1.002
17	1950	3.916473478922	1.002
17	1954	3.946473478922	1.002
17	2049	3.976473478922	1.002
17	2076	4.006473478922	1.002
17	2080	4.036473478922	1.002
17	2175	4.066473478922	1.002
17	2217	4.096473478922	1.002
17	2244	4.126473478922	1.002
17	2308	4.156473478922	1.002
17	2350	4.186473478922	1.002
17	2377	4.216473478922	1.002
17	2381	4.246473478922	1.002
17	2476	4.276473478922	1.002
17	2503	4.306473478922	1.002
17	2507	4.336473478922	1.002
17	2602	4.366473478922	1.002
17	2644	4.396473478922	1.002
17	2671	4.426473478922	1.002
17	2735	4.456473478922	1.002
17	2777	4.486473478922	1.002
17	2804	4.516473478922	1.002
17	2808	4.546473478922	1.002
17	2910	4.576473478922	1.002
17	2937	4.606473478922	1.002
17	2941	4.636473478922	1.002
17	3043	4.666473478922	1.002
17	3085	4.696473478922	1.002
17	3112	4.726473478922	1.002
17	3176	4.756473478922	1.002
17	3218	4.786473478922	1.002
17	3245	4.816473478922	1.002
17	3249	4.846473478922	1.002
17	3344	4.876473478922	1.002
17	3371	4.906473478922	1.002
17	3375	4.936473478922	1.002
17	3470	4.966473478922	1.002
17	3512	4.996473478922	1.002
17	3539	5.026473478922	1.002
17	3603	5.056473478922	1.002
17	3645	5.086473478922	1.002
17	3672	5.116473478922	1.002
17	3676	5.146473478922	1.002
17	3771	5.176473478922	1.002
17	3798	5.206473478922	1.002
17	3802	5.236473478922	1.002
17	3904	5.266473478922	1.002
17	3946	5.296473478922	1.002
17	3973	5.326473478922	1.002
17	4037	5.356473478922	1.002
17	4079	5.386473478922	1.002
17	4106	5.416473478922	1.002
17	4110	5.446473478922	1.002
17	4212	5.476473478922	1.002
17	4239	5.506473478922	1.002
17	4243	5.536473478922	1.002
17	4345	5.566473478922	1.002
17	4387	5.596473478922	1.002
17	4414	5.626473478922	1.002
17	4478	5.656473478922	1.002
17	4520	5.686473478922	1.002
17	4547	5.716473478922	1.002
17	4551	5.746473478922	1.002
17	4653	5.776473478922	1.002
17	4680	5.806473478922	1.002
17	4684	5.836473478922	1.002
17	4786	5.866473478922	1.002
17	4828	5.896473478922	1.002
17	4855	5.926473478922	1.002
17	4919	5.956473478922	1.002
17	4961	5.986473478922	1.002
17	4988	6.016473478922	1.002
17	4992	6.046473478922	1.002
17	5087	6.076473478922	1.002
17	5114	6.106473478922	1.002
17	5118	6.136473478922	1.002
17	5241	6.166473478922	1.002
17	5295	6.196473478922	1.002
17	5329	6.226473478922	1.002
17	5412	6.256473478922	1.002
17	5466	6.286473478922	1.002
17	5500	6.316473478922	1.002
17	5504	6.346473478922	1.002
17	5637	6.376473478922	1.002
17	5671	6.406473478922	1.002
17	5675	6.436473478922	1.002
17	5808	6.466473478922	1.002
17	5862	6.496473478922	1.002
17	5896	6.526473478922	1.002
17	5979	6.556473478922	1.002
17	6033	6.586473478922	1.002
17	6067	6.616473478922	1.002
17	6071	6.646473478922	1.002
17	6204	6.676473478922	1.002
17	6238	6.706473478922	1.002
17	6242	6.736473478922	1.002
17	6375	6.766473478922	1.002
17	6429	6.796473478922	1.002
17	6463	6.826473478922	1.002
17	6546	6.856473478922	1.002
17	6600	6.886473478922	1.002
17	6634	6.916473478922	1.002
17	6638	6.946473478922	1.002
17	6771	6.976473478922	1.002
17	6805	7.006473478922	1.002
17	6809	7.036473478922	1.002
17	6942	7.066473478922	1.002
17	7023	7.096473478922	1.002
17	7059	7.126473478922	1.002
17	7184	7.156473478922	1.002
17	7265	7.186473478922	1.002
17	7326	7.216473478922	1.002
17	7332	7.246473478922	1.002
17	7500	7.276473478922	1.002
17	7561	7.306473478922	1.002
17	7567	7.336473478922	1.002
17	7725	7.366473478922	1.002
17	7806	7.396473478922	1.002
17	7842	7.426473478922	1.002
17	7967	7.456473478922	1.002
17	8048	7.486473478922	1.002
17	8109	7.516473478922	1.002
17	8115	7.546473478922	1.002
17	8290	7.576473478922	1.002
17	8351	7.606473478922	1.002
17	8357	7.636473478922	1.002
17	8542	7.666473478922	1.002
17	8623	7.696473478922	1.002
17	8659	7.726473478922	1.002
17	8794	7.756473478922	1.002
17	8875	7.786473478922	1.002
17	8936	7.816473478922	1.002
17	8942	7.846473478922	1.002
17	9127	7.876473478922	1.002
17	9188	7.906473478922	1.002
17	9194	7.936473478922	1.002
17	9369	7.966473478922	1.002
17	9450	7.996473478922	1.002
17	9486	8.026473478922	1.002
17	9621	8.056473478922	1.002
17	9702	8.086473478922	1.002
17	9763	8.116473478922	1.002
17	9769	8.146473478922	1.002
17	9944	8.176473478922	1.002
17	10005	8.206473478922	1.002
17	10011	8.236473478922	1.002
17	10196	8.266473478922	1.002
17	10277	8.296473478922	1.002
17	10313	8.326473478922	1.002
17	10438	8.356473478922	1.002
17	10519	8.386473478922	1.002
17	10580	8.416473478922	1.002
17	10586	8.446473478922	1.002
17	10761	8.476473478922	1.002
17	10822	8.506473478922	1.002
17	10828	8.536473478922	1.002
17	11003	8.566473478922	1.002
17	11084	8.596473478922	1.002
17	11120	8.626473478922	1.002
17	11235	8.656473478922	1.002
17	11316	8.686473478922	1.002
17	11377	8.716473478922	1.002
17	11383	8.746473478922	1.002
17	11548	8.776473478922	1.002
17	11609	8.806473478922	1.002
17	11615	8.836473478922	1.002
17	11790	8.866473478922	1.002
17	11871	8.896473478922	1.002
17	11907	8.926473478922	1.002
17	12042	8.956473478922	1.002
17	12123	8.986473478922	1.002
17	12184	9.016473478922	1.002
17	12190	9.046473478922	1.002
17	12375	9.076473478922	1.002
17	12436	9.106473478922	1.002
17	12442	9.136473478922	1.002
17	12670	9.166473478922	1.002
17	12769	9.196473478922	1.002
17	12812	9.226473478922	1.002
17	12965	9.256473478922	1.002
17	13064	9.286473478922	1.002
17	13138	9.316473478922	1.002
17	13146	9.346473478922	1.002
17	13412	9.376473478922	1.002
17	13519	9.406473478922	1.002
17	13527	9.436473478922	1.002
17	13797	9.466473478922	1.002
17	13929	9.496473478922	1.002
17	13974	9.526473478922	1.002
17	14191	9.556473478922	1.002
17	14323	9.586473478922	1.002
17	14399	9.616473478922	1.002
17	14407	9.646473478922	1.002
17	14730	9.676473478922	1.002
17	14837	9.706473478922	1.002
17	14845	9.736473478922	1.002
17	15112	9.766473478922	1.002
17	15244	9.796473478922	1.002
17	15289	9.826473478922	1.002
17	15493	9.856473478922	1.002
17	15625	9.886473478922	1.002
17	15701	9.916473478922	1.002
17	15709	9.946473478922	1.002
17	16010	9.976473478922	1.002
17	16117	10.006473478922	1.002
17	16125	10.036473478922	1.002
17	16391	10.066473478922	1.002
17	16523	10.096473478922	1.002
17	16568	10.126473478922	1.002
17	16785	10.156473478922	1.002
17	16917	10.186473478922	1.002
17	16993	10.216473478922	1.002
17	17001	10.246473478922	1.002
17	17302	10.276473478922	1.002
17	17409	10.306473478922	1.002
17	17417	10.336473478922	1.002
17	17696	10.366473478922	1.002
17	17828	10.396473478922	1.002
17	17873	10.426473478922	1.002
17	18090	10.456473478922	1.002
17	18222	10.486473478922	1.002
17	18298	10.516473478922	1.002
17	18306	10.546473478922	1.002
17	18616	10.576473478922	1.002
17	18723	10.606473478922	1.002
17	18731	10.636473478922	1.002
17	18997	10.666473478922	1.002
17	19129	10.696473478922	1.002
17	19174	10.726473478922	1.002
17	19378	10.756473478922	1.002
17	19510	10.786473478922	1.002
17	19586	10.816473478922	1.002
17	19594	10.846473478922	1.002
17	19891	10.876473478922	1.002
17	19998	10.906473478922	1.002
17	20006	10.936473478922	1.002
17	20285	10.966473478922	1.002
17	20417	10.996473478922	1.002
17	20462	11.026473478922	1.002
17	20679	11.056473478922	1.002
17	20811	11.086473478922	1.002
17	20887	11.116473478922	1.002
17	20895	11.146473478922	1.002
17	21183	11.176473478922	1.002
17	21290	11.206473478922	1.002
17	21298	11.236473478922	1.002
17	21577	11.266473478922	1.002
17	21709	11.296473478922	1.002
17	21754	11.326473478922	1.002
17	21971	11.356473478922	1.002
17	22103	11.386473478922	1.002
17	22179	11.416473478922	1.002
17	22187	11.446473478922	1.002
17	22484	11.476473478922	1.002
17	22591	11.506473478922	1.002
17	22599	11.536473478922	1.002
17	22878	11.566473478922	1.002
17	23010	11.596473478922	1.002
17	23055	11.626473478922	1.002
17	23263	11.656473478922	1.002
17	23395	11.686473478922	1.002
17	23471	11.716473478922	1.002
17	23479	11.746473478922	1.002
17	23780	11.776473478922	1.002
17	23887	11.806473478922	1.002
17	23895	11.836473478922	1.002
17	24152	11.866473478922	1.002
17	24284	11.896473478922	1.002
17	24329	11.926473478922	1.002
17	24546	11.956473478922	1.002
17	24678	11.986473478922	1.002
17	24754	12.016473478922	1.002
17	24762	12.046473478922	1.002
17	25059	12.076473478922	1.002
17	25166	12.106473478922	1.002
17	25174	12.136473478922	1.002
17	25505	12.166473478922	1.002
17	25661	12.196473478922	1.002
17	25713	12.226473478922	1.002
17	25956	12.256473478922	1.002
17	26112	12.286473478922	1.002
17	26201	12.316473478922	1.002
17	26211	12.346473478922	1.002
17	26613	12.376473478922	1.002
17	26741	12.406473478922	1.002
17	26751	12.436473478922	1.002
17	27184	12.466473478922	1.002
17	27379	12.496473478922	1.002
17	27433	12.526473478922	1.002
17	27766	12.556473478922	1.002
17	27961	12.586473478922	1.002
17	28052	12.616473478922	1.002
17	28062	12.646473478922	1.002
17	28511	12.676473478922	1.002
17	28639	12.706473478922	1.002
17	28649	12.736473478922	1.002
17	29050	12.766473478922	1.002
17	29245	12.796473478922	1.002
17	29299	12.826473478922	1.002
17	29632	12.856473478922	1.002
17	29827	12.886473478922	1.002
17	29918	12.916473478922	1.002
17	29928	12.946473478922	1.002
17	30355	12.976473478922	1.002
17	30483	13.006473478922	1.002
17	30493	13.036473478922	1.002
17	30895	13.066473478922	1.002
17	31090	13.096473478922	1.002
17	31144	13.126473478922	1.002
17	31462	13.156473478922	1.002
17	31657	13.186473478922	1.002
17	31748	13.216473478922	1.002
17	31758	13.246473478922	1.002
17	32223	13.276473478922	1.002
17	32351	13.306473478922	1.002
17	32361	13.336473478922	1.002
17	32791	13.366473478922	1.002
17	32986	13.396473478922	1.002
17	33040	13.426473478922	1.002
17	33341	13.456473478922	1.002
17	33536	13.486473478922	1.002
17	33627	13.516473478922	1.002
17	33637	13.546473478922	1.002
17	34075	13.576473478922	1.002
17	34203	13.606473478922	1.002
17	34213	13.636473478922	1.002
17	34625	13.666473478922	1.002
17	34820	13.696473478922	1.002
17	34874	13.726473478922	1.002
17	35191	13.756473478922	1.002
17	35386	13.786473478922	1.002
17	35477	13.816473478922	1.002
17	35487	13.846473478922	1.002
17	35952	13.876473478922	1.002
17	36080	13.906473478922	1.002
17	36090	13.936473478922	1.002
17	36518	13.966473478922	1.002
17	36713	13.996473478922	1.002
17	36767	14.026473478922	1.002
17	37068	14.056473478922	1.002
17	37263	14.086473478922	1.002
17	37354	14.116473478922	1.002
17	37364	14.146473478922	1.002
17	37813	14.176473478922	1.002
17	37941	14.206473478922	1.002
17	37951	14.236473478922	1.002
17	38384	14.266473478922	1.002
17	38579	14.296473478922	1.002
17	38633	14.326473478922	1.002
17	38950	14.356473478922	1.002
17	39145	14.386473478922	1.002
17	39236	14.416473478922	1.002
17	39246	14.446473478922	1.002
17	39695	14.476473478922	1.002
17	39823	14.506473478922	1.002
17	39833	14.536473478922	1.002
17	40255	14.566473478922	1.002
17	40450	14.596473478922	1.002
17	40504	14.626473478922	1.002
17	40789	14.656473478922	1.002
17	40984	14.686473478922	1.002
17	41075	14.716473478922	1.002
17	41085	14.746473478922	1.002
17	41550	14.776473478922	1.002
17	41678	14.806473478922	1.002
17	41688	14.836473478922	1.002
17	42100	14.866473478922	1.002
17	42295	14.896473478922	1.002
17	42349	14.926473478922	1.002
17	42655	14.956473478922	1.002
17	42850	14.986473478922	1.002
17	42941	15.016473478922	1.002
17	42951	15.046473478922	1.002
17	43405	15.076473478922	1.002
17	43533	15.106473478922	1.002
17	43543	15.136473478922	1.002
17	43955	15.166473478922	1.002
17	44150	15.196473478922	1.002
17	44204	15.226473478922	1.002
17	44510	15.256473478922	1.002
17	44705	15.286473478922	1.002
17	44796	15.316473478922	1.002
17	44806	15.346473478922	1.002
17	45255	15.376473478922	1.002
17	45383	15.406473478922	1.002
17	45393	15.436473478922	1.002
17	45799	15.466473478922	1.002
17	45994	15.496473478922	1.002
17	46048	15.526473478922	1.002
17	46359	15.556473478922	1.002
17	46554	15.586473478922	1.002
17	46645	15.616473478922	1.002
17	46655	15.646473478922	1.002
17	47093	15.676473478922	1.002
17	47221	15.706473478922	1.002
17	47231	15.736473478922	1.002
17	47648	15.766473478922	1.002
17	47843	15.796473478922	1.002
17	47897	15.826473478922	1.002
17	48198	15.856473478922	1.002
17	48393	15.886473478922	1.002
17	48484	15.916473478922	1.002
17	48494	15.946473478922	1.002
17	48921	15.976473478922	1.002
17	49049	16.006473478922	1.002
17	49059	16.036473478922	1.002
17	49487	16.066473478922	1.002
17	49682	16.096473478922	1.002
17	49736	16.126473478922	1.002
17	50042	16.156473478922	1.002
17	50237	16.186473478922	1.002
17	50328	16.216473478922	1.002
17	50338	16.246473478922	1.002
17	50776	16.276473478922	1.002
17	50904	16.306473478922	1.002
17	50914	16.336473478922	1.002
17	51326	16.366473478922	1.002
17	51521	16.396473478922	1.002
17	51575	16.426473478922	1.002
17	51892	16.456473478922	1.002
17	52087	16.486473478922	1.002
17	52178	16.516473478922	1.002
17	52188	16.546473478922	1.002
17	52626	16.576473478922	1.002
17	52754	16.606473478922	1.002
17	52764	16.636473478922	1.002
17	53186	16.666473478922	1.002
17	53381	16.696473478922	1.002
17	53435	16.726473478922	1.002
17	53736	16.756473478922	1.002
17	53931	16.786473478922	1.002
17	54022	16.816473478922	1.002
17	54032	16.846473478922	1.002
17	54486	16.876473478922	1.002
17	54614	16.906473478922	1.002
17	54624	16.936473478922	1.002
17	55019	16.966473478922	1.002
17	55214	16.996473478922	1.002
17	55268	17.026473478922	1.002
17	55563	17.056473478922	1.002
17	55758	17.086473478922	1.002
17	55849	17.116473478922	1.002
17	55859	17.146473478922	1.002
17	56297	17.176473478922	1.002
17	56425	17.206473478922	1.002
17	56435	17.236473478922	1.002
17	56863	17.266473478922	1.002
17	57058	17.296473478922	1.002
17	57112	17.326473478922	1.002
17	57429	17.356473478922	1.002
17	57624	17.386473478922	1.002
17	57715	17.416473478922	1.002
17	57725	17.446473478922	1.002
17	58163	17.476473478922	1.002
17	58291	17.506473478922	1.002
17	58301	17.536473478922	1.002
17	58718	17.566473478922	1.002
17	58913	17.596473478922	1.002
17	58967	17.626473478922	1.002
17	59289	17.656473478922	1.002
17	59484	17.686473478922	1.002
17	59575	17.716473478922	1.002
17	59585	17.746473478922	1.002
17	60028	17.776473478922	1.002
17	60156	17.806473478922	1.002
17	60166	17.836473478922	1.002
17	60572	17.866473478922	1.002
17	60767	17.896473478922	1.002
17	60821	17.926473478922	1.002
17	61127	17.956473478922	1.002
17	61322	17.986473478922	1.002
17	61413	18.016473478922	1.002
17	61423	18.046473478922	1.002
17	61866	18.076473478922	1.002
17	61994	18.106473478922	1.002
17	62004	18.136473478922	1.002
17	62421	18.166473478922	1.002
17	62616	18.196473478922	1.002
17	62670	18.226473478922	1.002
17	63003	18.256473478922	1.002
17	63198	18.286473478922	1.002
17	63289	18.316473478922	1.002
17	63299	18.346473478922	1.002
17	63742	18.376473478922	1.002
17	63870	18.406473478922	1.002
17	63880	18.436473478922	1.002
17	64308	18.466473478922	1.002
17	64503	18.496473478922	1.002
17	64557	18.526473478922	1.002
17	64890	18.556473478922	1.002
17	65085	18.586473478922	1.002
17	65176	18.616473478922	1.002
17	65186	18.646473478922	1.002
17	65651	18.676473478922	1.002
17	65779	18.706473478922	1.002
17	65789	18.736473478922	1.002
17	66195	18.766473478922	1.002
17	66390	18.796473478922	1.002
17	66444	18.826473478922	1.002
17	66734	18.856473478922	1.002
17	66929	18.886473478922	1.002
17	67020	18.916473478922	1.002
17	67030	18.946473478922	1.002
17	67495	18.976473478922	1.002
17	67623	19.006473478922	1.002
17	67633	19.036473478922	1.002
17	68045	19.066473478922	1.002
17	68240	19.096473478922	1.002
17	68294	19.126473478922	1.002
17	68589	19.156473478922	1.002
17	68784	19.186473478922	1.002
17	68875	19.216473478922	1.002
17	68885	19.246473478922	1.002
17	69323	19.276473478922	1.002
17	69451	19.306473478922	1.002
17	69461	19.336473478922	1.002
17	69878	19.366473478922	1.002
17	70073	19.396473478922	1.002
17	70127	19.426473478922	1.002
17	70444	19.456473478922	1.002
17	70639	19.486473478922	1.002
17	70730	19.516473478922	1.002
17	70740	19.546473478922	1.002
17	71194	19.576473478922	1.002
17	71322	19.606473478922	1.002
17	71332	19.636473478922	1.002
17	71749	19.666473478922	1.002
17	71944	19.696473478922	1.002
17	71998	19.726473478922	1.002
17	72304	19.756473478922	1.002
17	72499	19.786473478922	1.002
17	72590	19.816473478922	1.002
17	72600	19.846473478922	1.002
17	73038	19.876473478922	1.002
17	73166	19.906473478922	1.002
17	73176	19.936473478922	1.002
17	73582	19.966473478922	1.002
17	73777	19.996473478922	1.002
17	73831	20.026473478922	1.002
17	74137	20.056473478922	1.002
17	74332	20.086473478922	1.002
17	74423	20.116473478922	1.002
17	74433	20.146473478922	1.002
17	74882	20.176473478922	1.002
17	75010	20.206473478922	1.002
17	75020	20.236473478922	1.002
17	75437	20.266473478922	1.002
17	75632	20.296473478922	1.002
17	75686	20.326473478922	1.002
17	75992	20.356473478922	1.002
17	76187	20.386473478922	1.002
17	76278	20.416473478922	1.002
17	76288	20.446473478922	1.002
17	76721	20.476473478922	1.002
17	76849	20.506473478922	1.002
17	76859	20.536473478922	1.002
17	77276	20.566473478922	1.002
17	77471	20.596473478922	1.002
17	77525	20.626473478922	1.002
17	77815	20.656473478922	1.002
17	78010	20.686473478922	1.002
17	78101	20.716473478922	1.002
17	78111	20.746473478922	1.002
17	78549	20.776473478922	1.002
17	78677	20.806473478922	1.002
17	78687	20.836473478922	1.002
17	79088	20.866473478922	1.002
17	79283	20.896473478922	1.002
17	79337	20.926473478922	1.002
17	79670	20.956473478922	1.002
17	79865	20.986473478922	1.002
17	79956	21.016473478922	1.002
17	79966	21.046473478922	1.002
17	80415	21.076473478922	1.002
17	80543	21.106473478922	1.002
17	80553	21.136473478922	1.002
17	80970	21.166473478922	1.002
17	81165	21.196473478922	1.002
17	81219	21.226473478922	1.002
17	81520	21.256473478922	1.002
17	81715	21.286473478922	1.002
17	81806	21.316473478922	1.002
17	81816	21.346473478922	1.002
17	82281	21.376473478922	1.002
17	82409	21.406473478922	1.002
17	82419	21.436473478922	1.002
17	82825	21.466473478922	1.002
17	83020	21.496473478922	1.002
17	83074	21.526473478922	1.002
17	83391	21.556473478922	1.002
17	83586	21.586473478922	1.002
17	83677	21.616473478922	1.002
17	83687	21.646473478922	1.002
17	84136	21.676473478922	1.002
17	84264	21.706473478922	1.002
17	84274	21.736473478922	1.002
17	84680	21.766473478922	1.002
17	84875	21.796473478922	1.002
17	84929	21.826473478922	1.002
17	85246	21.856473478922	1.002
17	85441	21.886473478922	1.002
17	85532	21.916473478922	1.002
17	85542	21.946473478922	1.002
17	85991	21.976473478922	1.002
17	86119	22.006473478922	1.002
17	86129	22.036473478922	1.002
17	86530	22.066473478922	1.002
17	86725	22.096473478922	1.002
17	86779	22.126473478922	1.002
17	87080	22.156473478922	1.002
17	87275	22.186473478922	1.002
17	87366	22.216473478922	1.002
17	87376	22.246473478922	1.002
17	87814	22.276473478922	1.002
17	87942	22.306473478922	1.002
17	87952	22.336473478922	1.002
17	88374	22.366473478922	1.002
17	88569	22.396473478922	1.002
17	88623	22.426473478922	1.002
17	88913	22.456473478922	1.002
17	89108	22.486473478922	1.002
17	89199	22.516473478922	1.002
17	89209	22.546473478922	1.002
17	89647	22.576473478922	1.002
17	89775	22.606473478922	1.002
17	89785	22.636473478922	1.002
17	90213	22.666473478922	1.002
17	90408	22.696473478922	1.002
17	90462	22.726473478922	1.002
17	90768	22.756473478922	1.002
17	90963	22.786473478922	1.002
17	91054	22.816473478922	1.002
17	91064	22.846473478922	1.002
17	91491	22.876473478922	1.002
17	91619	22.906473478922	1.002
17	91629	22.936473478922	1.002
17	92030	22.966473478922	1.002
17	92225	22.996473478922	1.002
17	92279	23.026473478922	1.002
17	92585	23.056473478922	1.002
17	92780	23.086473478922	1.002
17	92871	23.116473478922	1.002
17	92881	23.146473478922	1.002
17	93330	23.176473478922	1.002
17	93458	23.206473478922	1.002
17	93468	23.236473478922	1.002
17	93880	23.266473478922	1.002
17	94075	23.296473478922	1.002
17	94129	23.326473478922	1.002
17	94446	23.356473478922	1.002
17	94641	23.386473478922	1.002
17	94732	23.416473478922	1.002
17	94742	23.446473478922	1.002
17	95207	23.476473478922	1.002
17	95335	23.506473478922	1.002
17	95345	23.536473478922	1.002
17	95789	23.566473478922	1.002
17	95984	23.596473478922	1.002
17	96038	23.626473478922	1.002
17	96339	23.656473478922	1.002
17	96534	23.686473478922	1.002
17	96625	23.716473478922	1.002
17	96635	23.746473478922	1.002
17	97100	23.776473478922	1.002
17	97228	23.806473478922	1.002
17	97238	23.836473478922	1.002
17	97660	23.866473478922	1.002
17	97855	23.896473478922	1.002
17	97909	23.926473478922	1.002
17	98210	23.956473478922	1.002
17	98405	23.986473478922	1.002
17	98496	24.016473478922	1.002
17	98506	24.046473478922	1.002
17	98949	24.076473478922	1.002
17	99077	24.106473478922	1.002
17	99087	24.136473478922	1.002
17	99504	24.166473478922	1.002
17	99699	24.196473478922	1.002
17	99753	24.226473478922	1.002
17	100059	24.256473478922	1.002
17	100254	24.286473478922	1.002
17	100345	24.316473478922	1.002
17	100355	24.346473478922	1.002
17	100820	24.376473478922	1.002
17	100948	24.406473478922	1.002
17	100958	24.436473478922	1.002
17	101359	24.466473478922	1.002
17	101554	24.496473478922	1.002
17	101608	24.526473478922	1.002
17	101925	24.556473478922	1.002
17	102120	24.586473478922	1.002
17	102211	24.616473478922	1.002
17	102221	24.646473478922	1.002
17	102659	24.676473478922	1.002
17	102787	24.706473478922	1.002
17	102797	24.736473478922	1.002
17	103225	24.766473478922	1.002
17	103420	24.796473478922	1.002
17	103474	24.826473478922	1.002
17	103780	24.856473478922	1.002
17	103975	24.886473478922	1.002
17	104066	24.916473478922	1.002
17	104076	24.946473478922	1.002
17	104519	24.976473478922	1.002
17	104647	25.006473478922	1.002
17	104657	25.036473478922	1.002
17	105074	25.066473478922	1.002
17	105269	25.096473478922	1.002
17	105323	25.126473478922	1.002
17	105613	25.156473478922	1.002
17	105808	25.186473478922	1.002
17	105899	25.216473478922	1.002
17	105909	25.246473478922	1.002
17	106352	25.276473478922	1.002
17	106480	25.306473478922	1.002
17	106490	25.336473478922	1.002
17	106891	25.366473478922	1.002
17	107086	25.396473478922	1.002
17	107140	25.426473478922	1.002
17	107446	25.456473478922	1.002
17	107641	25.486473478922	1.002
17	107732	25.516473478922	1.002
17	107742	25.546473478922	1.002
17	108212	25.576473478922	1.002
17	108340	25.606473478922	1.002
17	108350	25.636473478922	1.002
17	108751	25.666473478922	1.002
17	108946	25.696473478922	1.002
17	109000	25.726473478922	1.002
17	109301	25.756473478922	1.002
17	109496	25.786473478922	1.002
17	109587	25.816473478922	1.002
17	109597	25.846473478922	1.002
17	110035	25.876473478922	1.002
17	110163	25.906473478922	1.002
17	110173	25.936473478922	1.002
17	110569	25.966473478922	1.002
17	110764	25.996473478922	1.002
17	110818	26.026473478922	1.002
17	111135	26.056473478922	1.002
17	111330	26.086473478922	1.002
17	111421	26.116473478922	1.002
17	111431	26.146473478922	1.002
17	111885	26.176473478922	1.002
17	112013	26.206473478922	1.002
17	112023	26.236473478922	1.002
17	112451	26.266473478922	1.002
17	112646	26.296473478922	1.002
17	112700	26.326473478922	1.002
17	113017	26.356473478922	1.002
17	113212	26.386473478922	1.002
17	113303	26.416473478922	1.002
17	113313	26.446473478922	1.002
17	113740	26.476473478922	1.002
17	113868	26.506473478922	1.002
17	113878	26.536473478922	1.002
17	114295	26.566473478922	1.002
17	114490	26.596473478922	1.002
17	114544	26.626473478922	1.002
17	114850	26.656473478922	1.002
17	115045	26.686473478922	1.002
17	115136	26.716473478922	1.002
17	115146	26.746473478922	1.002
17	115595	26.776473478922	1.002
17	115723	26.806473478922	1.002
17	115733	26.836473478922	1.002
17	116128	26.866473478922	1.002
17	116323	26.896473478922	1.002
17	116377	26.926473478922	1.002
17	116699	26.956473478922	1.002
17	116894	26.986473478922	1.002
17	116985	27.016473478922	1.002
17	116995	27.046473478922	1.002
17	117449	27.076473478922	1.002
17	117577	27.106473478922	1.002
17	117587	27.136473478922	1.002
17	117988	27.166473478922	1.002
17	118183	27.196473478922	1.002
17	118237	27.226473478922	1.002
17	118554	27.256473478922	1.002
17	118749	27.286473478922	1.002
17	118840	27.316473478922	1.002
17	118850	27.346473478922	1.002
17	119315	27.376473478922	1.002
17	119443	27.406473478922	1.002
17	119453	27.436473478922	1.002
17	119870	27.466473478922	1.002
17	120065	27.496473478922	1.002
17	120119	27.526473478922	1.002
17	120436	27.556473478922	1.002
17	120631	27.586473478922	1.002
17	120722	27.616473478922	1.002
17	120732	27.646473478922	1.002
17	121197	27.676473478922	1.002
17	121325	27.706473478922	1.002
17	121335	27.736473478922	1.002
17	121752	27.766473478922	1.002
17	121947	27.796473478922	1.002
17	122001	27.826473478922	1.002
17	122318	27.856473478922	1.002
17	122513	27.886473478922	1.002
17	122604	27.916473478922	1.002
17	122614	27.946473478922	1.002
17	123047	27.976473478922	1.002
17	123175	28.006473478922	1.002
17	123185	28.036473478922	1.002
17	123575	28.066473478922	1.002
17	123770	28.096473478922	1.002
17	123824	28.126473478922	1.002
17	124130	28.156473478922	1.002
17	124325	28.186473478922	1.002
17	124416	28.216473478922	1.002
17	124426	28.246473478922	1.002
17	124875	28.276473478922	1.002
17	125003	28.306473478922	1.002
17	125013	28.336473478922	1.002
17	125419	28.366473478922	1.002
17	125614	28.396473478922	1.002
17	125668	28.426473478922	1.002
17	125990	28.456473478922	1.002
17	126185	28.486473478922	1.002
17	126276	28.516473478922	1.002
17	126286	28.546473478922	1.002
17	126735	28.576473478922	1.002
17	126863	28.606473478922	1.002
17	126873	28.636473478922	1.002
17	127290	28.666473478922	1.002
17	127485	28.696473478922	1.002
17	127539	28.726473478922	1.002
17	127856	28.756473478922	1.002
17	128051	28.786473478922	1.002
17	128142	28.816473478922	1.002
17	128152	28.846473478922	1.002
17	128601	28.876473478922	1.002
17	128729	28.906473478922	1.002
17	128739	28.936473478922	1.002
17	129140	28.966473478922	1.002
17	129335	28.996473478922	1.002
17	129389	29.026473478922	1.002
17	129690	29.056473478922	1.002
17	129885	29.086473478922	1.002
17	129976	29.116473478922	1.002
17	129986	29.146473478922	1.002
17	130440	29.176473478922	1.002
17	130568	29.206473478922	1.002
17	130578	29.236473478922	1.002
17	131006	29.266473478922	1.002
17	131201	29.296473478922	1.002
17	131255	29.326473478922	1.002
17	131556	29.356473478922	1.002
17	131751	29.386473478922	1.002
17	131842	29.416473478922	1.002
17	131852	29.446473478922	1.002
17	132306	29.476473478922	1.002
17	132434	29.506473478922	1.002
17	132444	29.536473478922	1.002
17	132856	29.566473478922	1.002
17	133051	29.596473478922	1.002
17	133105	29.626473478922	1.002
17	133422	29.656473478922	1.002
17	133617	29.686473478922	1.002
17	133708	29.716473478922	1.002
17	133718	29.746473478922	1.002
17	134156	29.776473478922	1.002
17	134284	29.806473478922	1.002
17	134294	29.836473478922	1.002
17	134695	29.866473478922	1.002
17	134890	29.896473478922	1.002
17	134944	29.926473478922	1.002
17	135234	29.956473478922	1.002
17	135429	29.986473478922	1.002
17	135520	30.016473478922	1.002
17	135530	30.046473478922	1.002
17	135995	30.076473478922	1.002
17	136123	30.106473478922	1.002
17	136133	30.136473478922	1.002
17	136534	30.166473478922	1.002
17	136729	30.196473478922	1.002
17	136783	30.226473478922	1.002
17	137084	30.256473478922	1.002
17	137279	30.286473478922	1.002
17	137370	30.316473478922	1.002
17	137380	30.346473478922	1.002
17	137845	30.376473478922	1.002
17	137973	30.406473478922	1.002
17	137983	30.436473478922	1.002
17	138368	30.466473478922	1.002
17	138563	30.496473478922	1.002
17	138617	30.526473478922	1.002
17	138912	30.556473478922	1.002
17	139107	30.586473478922	1.002
17	139198	30.616473478922	1.002
17	139208	30.646473478922	1.002
17	139651	30.676473478922	1.002
17	139779	30.706473478922	1.002
17	139789	30.736473478922	1.002
17	140217	30.766473478922	1.002
17	140412	30.796473478922	1.002
17	140466	30.826473478922	1.002
17	140767	30.856473478922	1.002
17	140962	30.886473478922	1.002
17	141053	30.916473478922	1.002
17	141063	30.946473478922	1.002
17	141517	30.976473478922	1.002
17	141645	31.006473478922	1.002
17	141655	31.036473478922	1.002
17	142061	31.066473478922	1.002
17	142256	31.096473478922	1.002
17	142310	31.126473478922	1.002
17	142627	31.156473478922	1.002
17	142822	31.186473478922	1.002
17	142913	31.216473478922	1.002
17	142923	31.246473478922	1.002
17	143350	31.276473478922	1.002
17	143478	31.306473478922	1.002
17	143488	31.336473478922	1.002
17	143900	31.366473478922	1.002
17	144095	31.396473478922	1.002
17	144149	31.426473478922	1.002
17	144434	31.456473478922	1.002
17	144629	31.486473478922	1.002
17	144720	31.516473478922	1.002
17	144730	31.546473478922	1.002
17	145184	31.576473478922	1.002
17	145312	31.606473478922	1.002
17	145322	31.636473478922	1.002
17	145755	31.666473478922	1.002
17	145950	31.696473478922	1.002
17	146004	31.726473478922	1.002
17	146321	31.756473478922	1.002
17	146516	31.786473478922	1.002
17	146607	31.816473478922	1.002
17	146617	31.846473478922	1.002
17	147055	31.876473478922	1.002
17	147183	31.906473478922	1.002
17	147193	31.936473478922	1.002
17	147605	31.966473478922	1.002
17	147800	31.996473478922	1.002
17	147854	32.026473478922	1.002
17	148171	32.056473478922	1.002
17	148366	32.086473478922	1.002
17	148457	32.116473478922	1.002
17	148467	32.146473478922	1.002
17	148932	32.176473478922	1.002
17	149060	32.206473478922	1.002
17	149070	32.236473478922	1.002
17	149482	32.266473478922	1.002
17	149677	32.296473478922	1.002
17	149731	32.326473478922	1.002
17	150053	32.356473478922	1.002
17	150248	32.386473478922	1.002
17	150339	32.416473478922	1.002
17	150349	32.446473478922	1.002
17	150787	32.476473478922	1.002
17	150915	32.506473478922	1.002
17	150925	32.536473478922	1.002
17	151331	32.566473478922	1.002
17	151526	32.596473478922	1.002
17	151580	32.626473478922	1.002
17	151886	32.656473478922	1.002
17	152081	32.686473478922	1.002
17	152172	32.716473478922	1.002
17	152182	32.746473478922	1.002
17	152636	32.776473478922	1.002
17	152764	32.806473478922	1.002
17	152774	32.836473478922	1.002
17	153191	32.866473478922	1.002
17	153386	32.896473478922	1.002
17	153440	32.926473478922	1.002
17	153757	32.956473478922	1.002
17	153952	32.986473478922	1.002
17	154043	33.016473478922	1.002
17	154053	33.046473478922	1.002
17	154518	33.076473478922	1.002
17	154646	33.106473478922	1.002
17	154656	33.136473478922	1.002
17	155084	33.166473478922	1.002
17	155279	33.196473478922	1.002
17	155333	33.226473478922	1.002
17	155618	33.256473478922	1.002
17	155813	33.286473478922	1.002
17	155904	33.316473478922	1.002
17	155914	33.346473478922	1.002
17	156357	33.376473478922	1.002
17	156485	33.406473478922	1.002
17	156495	33.436473478922	1.002
17	156917	33.466473478922	1.002
17	157112	33.496473478922	1.002
17	157166	33.526473478922	1.002
17	157472	33.556473478922	1.002
17	157667	33.586473478922	1.002
17	157758	33.616473478922	1.002
17	157768	33.646473478922	1.002
17	158217	33.676473478922	1.002
17	158345	33.706473478922	1.002
17	158355	33.736473478922	1.002
17	158767	33.766473478922	1.002
17	158962	33.796473478922	1.002
17	159016	33.826473478922	1.002
17	159333	33.856473478922	1.002
17	159528	33.886473478922	1.002
17	159619	33.916473478922	1.002
17	159629	33.946473478922	1.002
17	160094	33.976473478922	1.002
17	160222	34.006473478922	1.002
17	160232	34.036473478922	1.002
17	160633	34.066473478922	1.002
17	160828	34.096473478922	1.002
17	160882	34.126473478922	1.002
17	161188	34.156473478922	1.002
17	161383	34.186473478922	1.002
17	161474	34.216473478922	1.002
17	161484	34.246473478922	1.002
17	161954	34.276473478922	1.002
17	162082	34.306473478922	1.002
17	162092	34.336473478922	1.002
17	162504	34.366473478922	1.002
17	162699	34.396473478922	1.002
17	162753	34.426473478922	1.002
17	163054	34.456473478922	1.002
17	163249	34.486473478922	1.002
17	163340	34.516473478922	1.002
17	163350	34.546473478922	1.002
17	163777	34.576473478922	1.002
17	163905	34.606473478922	1.002
17	163915	34.636473478922	1.002
17	164327	34.666473478922	1.002
17	164522	34.696473478922	1.002
17	164576	34.726473478922	1.002
17	164909	34.756473478922	1.002
17	165104	34.786473478922	1.002
17	165195	34.816473478922	1.002
17	165205	34.846473478922	1.002
17	165659	34.876473478922	1.002
17	165787	34.906473478922	1.002
17	165797	34.936473478922	1.002
17	166209	34.966473478922	1.002
17	166404	34.996473478922	1.002
17	166458	35.026473478922	1.002
17	166775	35.056473478922	1.002
17	166970	35.086473478922	1.002
17	167061	35.116473478922	1.002
17	167071	35.146473478922	1.002
17	167520	35.176473478922	1.002
17	167648	35.206473478922	1.002
17	167658	35.236473478922	1.002
17	168059	35.266473478922	1.002
17	168254	35.296473478922	1.002
17	168308	35.326473478922	1.002
17	168598	35.356473478922	1.002
17	168793	35.386473478922	1.002
17	168884	35.416473478922	1.002
17	168894	35.446473478922	1.002
17	169332	35.476473478922	1.002
17	169460	35.506473478922	1.002
17	169470	35.536473478922	1.002
17	169876	35.566473478922	1.002
17	170071	35.596473478922	1.002
17	170125	35.626473478922	1.002
17	170447	35.656473478922	1.002
17	170642	35.686473478922	1.002
17	170733	35.716473478922	1.002
17	170743	35.746473478922	1.002
17	171192	35.776473478922	1.002
17	171320	35.806473478922	1.002
17	171330	35.836473478922	1.002
17	171726	35.866473478922	1.002
17	171921	35.896473478922	1.002
17	171975	35.926473478922	1.002
17	172281	35.956473478922	1.002
17	172476	35.986473478922	1.002
17	172567	36.016473478922	1.002
17	172577	36.046473478922	1.002
17	173031	36.076473478922	1.002
17	173159	36.106473478922	1.002
17	173169	36.136473478922	1.002
17	173575	36.166473478922	1.002
17	173770	36.196473478922	1.002
17	173824	36.226473478922	1.002
17	174141	36.256473478922	1.002
17	174336	36.286473478922	1.002
17	174427	36.316473478922	1.002
17	174437	36.346473478922	1.002
17	174902	36.376473478922	1.002
17	175030	36.406473478922	1.002
17	175040	36.436473478922	1.002
17	175473	36.466473478922	1.002
17	175668	36.496473478922	1.002
17	175722	36.526473478922	1.002
17	176039	36.556473478922	1.002
17	176234	36.586473478922	1.002
17	176325	36.616473478922	1.002
17	176335	36.646473478922	1.002
17	176767	36.676473478922	1.002
17	176895	36.706473478922	1.002
17	176905	36.736473478922	1.002
17	177322	36.766473478922	1.002
17	177517	36.796473478922	1.002
17	177571	36.826473478922	1.002
17	177877	36.856473478922	1.002
17	178072	36.886473478922	1.002
17	178163	36.916473478922	1.002
17	178173	36.946473478922	1.002
17	178622	36.976473478922	1.002
17	178750	37.006473478922	1.002
17	178760	37.036473478922	1.002
17	179188	37.066473478922	1.002
17	179383	37.096473478922	1.002
17	179437	37.126473478922	1.002
17	179738	37.156473478922	1.002
17	179933	37.186473478922	1.002
17	180024	37.216473478922	1.002
17	180034	37.246473478922	1.002
17	180488	37.276473478922	1.002
17	180616	37.306473478922	1.002
17	180626	37.336473478922	1.002
17	181054	37.366473478922	1.002
17	181249	37.396473478922	1.002
17	181303	37.426473478922	1.002
17	181620	37.456473478922	1.002
17	181815	37.486473478922	1.002
17	181906	37.516473478922	1.002
17	181916	37.546473478922	1.002
17	182343	37.576473478922	1.002
17	182471	37.606473478922	1.002
17	182481	37.636473478922	1.002
17	182914	37.666473478922	1.002
17	183109	37.696473478922	1.002
17	183163	37.726473478922	1.002
17	183496	37.756473478922	1.002
17	183691	37.786473478922	1.002
17	183782	37.816473478922	1.002
17	183792	37.846473478922	1.002
17	184246	37.876473478922	1.002
17	184374	37.906473478922	1.002
17	184384	37.936473478922	1.002
17	184796	37.966473478922	1.002
17	184991	37.996473478922	1.002
17	185045	38.026473478922	1.002
17	185329	38.056473478922	1.002
17	185524	38.086473478922	1.002
17	185615	38.116473478922	1.002
17	185625	38.146473478922	1.002
17	186074	38.176473478922	1.002
17	186202	38.206473478922	1.002
17	186212	38.236473478922	1.002
17	186624	38.266473478922	1.002
17	186819	38.296473478922	1.002
17	186873	38.326473478922	1.002
17	187179	38.356473478922	1.002
17	187374	38.386473478922	1.002
17	187465	38.416473478922	1.002
17	187475	38.446473478922	1.002
17	187929	38.476473478922	1.002
17	188057	38.506473478922	1.002
17	188067	38.536473478922	1.002
17	188484	38.566473478922	1.002
17	188679	38.596473478922	1.002
17	188733	38.626473478922	1.002
17	189050	38.656473478922	1.002
17	189245	38.686473478922	1.002
17	189336	38.716473478922	1.002
17	189346	38.746473478922	1.002
17	189784	38.776473478922	1.002
17	189912	38.806473478922	1.002
17	189922	38.836473478922	1.002
17	190366	38.866473478922	1.002
17	190561	38.896473478922	1.002
17	190615	38.926473478922	1.002
17	190916	38.956473478922	1.002
17	191111	38.986473478922	1.002
17	191202	39.016473478922	1.002
17	191212	39.046473478922	1.002
17	191666	39.076473478922	1.002
17	191794	39.106473478922	1.002
17	191804	39.136473478922	1.002
17	192216	39.166473478922	1.002
17	192411	39.196473478922	1.002
17	192465	39.226473478922	1.002
17	192782	39.256473478922	1.002
17	192977	39.286473478922	1.002
17	193068	39.316473478922	1.002
17	193078	39.346473478922	1.002
17	193521	39.376473478922	1.002
17	193649	39.406473478922	1.002
17	193659	39.436473478922	1.002
17	194071	39.466473478922	1.002
17	194266	39.496473478922	1.002
17	194320	39.526473478922	1.002
17	194626	39.556473478922	1.002
17	194821	39.586473478922	1.002
17	194912	39.616473478922	1.002
17	194922	39.646473478922	1.002
17	195371	39.676473478922	1.002
17	195499	39.706473478922	1.002
17	195509	39.736473478922	1.002
17	195937	39.766473478922	1.002
17	196132	39.796473478922	1.002
17	196186	39.826473478922	1.002
17	196487	39.856473478922	1.002
17	196682	39.886473478922	1.002
17	196773	39.916473478922	1.002
17	196783	39.946473478922	1.002
17	197232	39.976473478922	1.002
17	197360	40.006473478922	1.002
17	197370	40.036473478922	1.002
17	197787	40.066473478922	1.002
17	197982	40.096473478922	1.002
17	198036	40.126473478922	1.002
17	198342	40.156473478922	1.002
17	198537	40.186473478922	1.002
17	198628	40.216473478922	1.002
17	198638	40.246473478922	1.002
17	199092	40.276473478922	1.002
17	199220	40.306473478922	1.002
17	199230	40.336473478922	1.002
17	199642	40.366473478922	1.002
17	199837	40.396473478922	1.002
17	199891	40.426473478922	1.002
17	200192	40.456473478922	1.002
17	200387	40.486473478922	1.002
17	200478	40.516473478922	1.002
17	200488	40.546473478922	1.002
17	200942	40.576473478922	1.002
17	201070	40.606473478922	1.002
17	201080	40.636473478922	1.002
17	201497	40.666473478922	1.002
17	201692	40.696473478922	1.002
17	201746	40.726473478922	1.002
17	202079	40.756473478922	1.002
17	202274	40.786473478922	1.002
17	202365	40.816473478922	1.002
17	202375	40.846473478922	1.002
17	202818	40.876473478922	1.002
17	202946	40.906473478922	1.002
17	202956	40.936473478922	1.002
17	203373	40.966473478922	1.002
17	203568	40.996473478922	1.002
17	203622	41.026473478922	1.002
17	203939	41.056473478922	1.002
17	204134	41.086473478922	1.002
17	204225	41.116473478922	1.002
17	204235	41.146473478922	1.002
17	204678	41.176473478922	1.002
17	204806	41.206473478922	1.002
17	204816	41.236473478922	1.002
17	205244	41.266473478922	1.002
17	205439	41.296473478922	1.002
17	205493	41.326473478922	1.002
17	205799	41.356473478922	1.002
17	205994	41.386473478922	1.002
17	206085	41.416473478922	1.002
17	206095	41.446473478922	1.002
17	206533	41.476473478922	1.002
17	206661	41.506473478922	1.002
17	206671	41.536473478922	1.002
17	207083	41.566473478922	1.002
17	207278	41.596473478922	1.002
17	207332	41.626473478922	1.002
17	207622	41.656473478922	1.002
17	207817	41.686473478922	1.002
17	207908	41.716473478922	1.002
17	207918	41.746473478922	1.002
17	208351	41.776473478922	1.002
17	208479	41.806473478922	1.002
17	208489	41.836473478922	1.002
17	208922	41.866473478922	1.002
17	209117	41.896473478922	1.002
17	209171	41.926473478922	1.002
17	209488	41.956473478922	1.002
17	209683	41.986473478922	1.002
17	209774	42.016473478922	1.002
17	209784	42.046473478922	1.002
17	210222	42.076473478922	1.002
17	210350	42.106473478922	1.002
17	210360	42.136473478922	1.002
17	210777	42.166473478922	1.002
17	210972	42.196473478922	1.002
17	211026	42.226473478922	1.002
17	211343	42.256473478922	1.002
17	211538	42.286473478922	1.002
17	211629	42.316473478922	1.002
17	211639	42.346473478922	1.002
17	212088	42.376473478922	1.002
17	212216	42.406473478922	1.002
17	212226	42.436473478922	1.002
17	212654	42.466473478922	1.002
17	212849	42.496473478922	1.002
17	212903	42.526473478922	1.002
17	213220	42.556473478922	1.002
17	213415	42.586473478922	1.002
17	213506	42.616473478922	1.002
17	213516	42.646473478922	1.002
17	213970	42.676473478922	1.002
17	214098	42.706473478922	1.002
17	214108	42.736473478922	1.002
17	214530	42.766473478922	1.002
17	214725	42.796473478922	1.002
17	214779	42.826473478922	1.002
17	215080	42.856473478922	1.002
17	215275	42.886473478922	1.002
17	215366	42.916473478922	1.002
17	215376	42.946473478922	1.002
17	215857	42.976473478922	1.002
17	215985	43.006473478922	1.002
17	215995	43.036473478922	1.002
17	216401	43.066473478922	1.002
17	216596	43.096473478922	1.002
17	216650	43.126473478922	1.002
17	216951	43.156473478922	1.002
17	217146	43.186473478922	1.002
17	217237	43.216473478922	1.002
17	217247	43.246473478922	1.002
17	217674	43.276473478922	1.002
17	217802	43.306473478922	1.002
17	217812	43.336473478922	1.002
17	218229	43.366473478922	1.002
17	218424	43.396473478922	1.002
17	218478	43.426473478922	1.002
17	218795	43.456473478922	1.002
17	218990	43.486473478922	1.002
17	219081	43.516473478922	1.002
17	219091	43.546473478922	1.002
17	219545	43.576473478922	1.002
17	219673	43.606473478922	1.002
17	219683	43.636473478922	1.002
17	220084	43.666473478922	1.002
17	220279	43.696473478922	1.002
17	220333	43.726473478922	1.002
17	220650	43.756473478922	1.002
17	220845	43.786473478922	1.002
17	220936	43.816473478922	1.002
17	220946	43.846473478922	1.002
17	221389	43.876473478922	1.002
17	221517	43.906473478922	1.002
17	221527	43.936473478922	1.002
17	221939	43.966473478922	1.002
17	222134	43.996473478922	1.002
17	222188	44.026473478922	1.002
17	222478	44.056473478922	1.002
17	222673	44.086473478922	1.002
17	222764	44.116473478922	1.002
17	222774	44.146473478922	1.002
17	223212	44.176473478922	1.002
17	223340	44.206473478922	1.002
17	223350	44.236473478922	1.002
17	223767	44.266473478922	1.002
17	223962	44.296473478922	1.002
17	224016	44.326473478922	1.002
17	224333	44.356473478922	1.002
17	224528	44.386473478922	1.002
17	224619	44.416473478922	1.002
17	224629	44.446473478922	1.002
17	225088	44.476473478922	1.002
17	225216	44.506473478922	1.002
17	225226	44.536473478922	1.002
17	225638	44.566473478922	1.002
17	225833	44.596473478922	1.002
17	225887	44.626473478922	1.002
17	226193	44.656473478922	1.002
17	226388	44.686473478922	1.002
17	226479	44.716473478922	1.002
17	226489	44.746473478922	1.002
17	226943	44.776473478922	1.002
17	227071	44.806473478922	1.002
17	227081	44.836473478922	1.002
17	227509	44.866473478922	1.002
17	227704	44.896473478922	1.002
17	227758	44.926473478922	1.002
17	228048	44.956473478922	1.002
17	228243	44.986473478922	1.002
17	228334	45.016473478922	1.002
17	228344	45.046473478922	1.002
17	228766	45.076473478922	1.002
17	228894	45.106473478922	1.002
17	228904	45.136473478922	1.002
17	229332	45.166473478922	1.002
17	229527	45.196473478922	1.002
17	229581	45.226473478922	1.002
17	229882	45.256473478922	1.002
17	230077	45.286473478922	1.002
17	230168	45.316473478922	1.002
17	230178	45.346473478922	1.002
17	230627	45.376473478922	1.002
17	230755	45.406473478922	1.002
17	230765	45.436473478922	1.002
17	231182	45.466473478922	1.002
17	231377	45.496473478922	1.002
17	231431	45.526473478922	1.002
17	231748	45.556473478922	1.002
17	231943	45.586473478922	1.002
17	232034	45.616473478922	1.002
17	232044	45.646473478922	1.002
17	232482	45.676473478922	1.002
17	232610	45.706473478922	1.002
17	232620	45.736473478922	1.002
17	233026	45.766473478922	1.002
17	233221	45.796473478922	1.002
17	233275	45.826473478922	1.002
17	233565	45.856473478922	1.002
17	233760	45.886473478922	1.002
17	233851	45.916473478922	1.002
17	233861	45.946473478922	1.002
17	234315	45.976473478922	1.002
17	234443	46.006473478922	1.002
17	234453	46.036473478922	1.002
17	234870	46.066473478922	1.002
17	235065	46.096473478922	1.002
17	235119	46.126473478922	1.002
17	235420	46.156473478922	1.002
17	235615	46.186473478922	1.002
17	235706	46.216473478922	1.002
17	235716	46.246473478922	1.002
17	236181	46.276473478922	1.002
17	236309	46.306473478922	1.002
17	236319	46.336473478922	1.002
17	236714	46.366473478922	1.002
17	236909	46.396473478922	1.002
17	236963	46.426473478922	1.002
17	237269	46.456473478922	1.002
17	237464	46.486473478922	1.002
17	237555	46.516473478922	1.002
17	237565	46.546473478922	1.002
17	238008	46.576473478922	1.002
17	238136	46.606473478922	1.002
17	238146	46.636473478922	1.002
17	238547	46.666473478922	1.002
17	238742	46.696473478922	1.002
17	238796	46.726473478922	1.002
17	239097	46.756473478922	1.002
17	239292	46.786473478922	1.002
17	239383	46.816473478922	1.002
17	239393	46.846473478922	1.002
17	239842	46.876473478922	1.002
17	239970	46.906473478922	1.002
17	239980	46.936473478922	1.002
17	240375	46.966473478922	1.002
17	240570	46.996473478922	1.002
17	240624	47.026473478922	1.002
17	240925	47.056473478922	1.002
17	241120	47.086473478922	1.002
17	241211	47.116473478922	1.002
17	241221	47.146473478922	1.002
17	241659	47.176473478922	1.002
17	241787	47.206473478922	1.002
17	241797	47.236473478922	1.002
17	242198	47.266473478922	1.002
17	242393	47.296473478922	1.002
17	242447	47.326473478922	1.002
17	242737	47.356473478922	1.002
17	242932	47.386473478922	1.002
17	243023	47.416473478922	1.002
17	243033	47.446473478922	1.002
17	243471	47.476473478922	1.002
17	243599	47.506473478922	1.002
17	243609	47.536473478922	1.002
17	244026	47.566473478922	1.002
17	244221	47.596473478922	1.002
17	244275	47.626473478922	1.002
17	244581	47.656473478922	1.002
17	244776	47.686473478922	1.002
17	244867	47.716473478922	1.002
17	244877	47.746473478922	1.002
17	245315	47.776473478922	1.002
17	245443	47.806473478922	1.002
17	245453	47.836473478922	1.002
17	245870	47.866473478922	1.002
17	246065	47.896473478922	1.002
17	246119	47.926473478922	1.002
17	246425	47.956473478922	1.002
17	246620	47.986473478922	1.002
17	246711	48.016473478922	1.002
17	246721	48.046473478922	1.002
17	247159	48.076473478922	1.002
17	247287	48.106473478922	1.002
17	247297	48.136473478922	1.002
17	247709	48.166473478922	1.002
17	247904	48.196473478922	1.002
17	247958	48.226473478922	1.002
17	248259	48.256473478922	1.002
17	248454	48.286473478922	1.002
17	248545	48.316473478922	1.002
17	248555	48.346473478922	1.002
17	248998	48.376473478922	1.002
17	249126	48.406473478922	1.002
17	249136	48.436473478922	1.002
17	249542	48.466473478922	1.002
17	249737	48.496473478922	1.002
17	249791	48.526473478922	1.002
17	250081	48.556473478922	1.002
17	250276	48.586473478922	1.002
17	250367	48.616473478922	1.002
17	250377	48.646473478922	1.002
17	250842	48.676473478922	1.002
17	250970	48.706473478922	1.002
17	250980	48.736473478922	1.002
17	251376	48.766473478922	1.002
17	251571	48.796473478922	1.002
17	251625	48.826473478922	1.002
17	251926	48.856473478922	1.002
17	252121	48.886473478922	1.002
17	252212	48.916473478922	1.002
17	252222	48.946473478922	1.002
17	252676	48.976473478922	1.002
17	252804	49.006473478922	1.002
17	252814	49.036473478922	1.002
17	253231	49.066473478922	1.002
17	253426	49.096473478922	1.002
17	253480	49.126473478922	1.002
17	253786	49.156473478922	1.002
17	253981	49.186473478922	1.002
17	254072	49.216473478922	1.002
17	254082	49.246473478922	1.002
17	254531	49.276473478922	1.002
17	254659	49.306473478922	1.002
17	254669	49.336473478922	1.002
17	255081	49.366473478922	1.002
17	255276	49.396473478922	1.002
17	255330	49.426473478922	1.002
17	255652	49.456473478922	1.002
17	255847	49.486473478922	1.002
17	255938	49.516473478922	1.002
17	255948	49.546473478922	1.002
17	256386	49.576473478922	1.002
17	256514	49.606473478922	1.002
17	256524	49.636473478922	1.002
17	256941	49.666473478922	1.002
17	257136	49.696473478922	1.002
17	257190	49.726473478922	1.002
17	257491	49.756473478922	1.002
17	257686	49.786473478922	1.002
17	257777	49.816473478922	1.002
17	257787	49.846473478922	1.002
17	258225	49.876473478922	1.002
17	258353	49.906473478922	1.002
17	258363	49.936473478922	1.002
17	258791	49.966473478922	1.002
17	258986	49.996473478922	1.002
17	259040	50.026473478922	1.002
17	259325	50.056473478922	1.002
17	259520	50.086473478922	1.002
17	259611	50.116473478922	1.002
17	259621	50.146473478922	1.002
17	260064	50.176473478922	1.002
17	260192	50.206473478922	1.002
17	260202	50.236473478922	1.002
17	260603	50.266473478922	1.002
17	260798	50.296473478922	1.002
17	260852	50.326473478922	1.002
17	261158	50.356473478922	1.002
17	261353	50.386473478922	1.002
17	261444	50.416473478922	1.002
17	261454	50.446473478922	1.002
17	261892	50.476473478922	1.002
17	262020	50.506473478922	1.002
17	262030	50.536473478922	1.002
17	262463	50.566473478922	1.002
17	262658	50.596473478922	1.002
17	262712	50.626473478922	1.002
17	263034	50.656473478922	1.002
17	263229	50.686473478922	1.002
17	263320	50.716473478922	1.002
17	263330	50.746473478922	1.002
17	263768	50.776473478922	1.002
17	263896	50.806473478922	1.002
17	263906	50.836473478922	1.002
17	264334	50.866473478922	1.002
17	264529	50.896473478922	1.002
17	264583	50.926473478922	1.002
17	264889	50.956473478922	1.002
17	265084	50.986473478922	1.002
17	265175	51.016473478922	1.002
17	265185	51.046473478922	1.002
17	265623	51.076473478922	1.002
17	265751	51.106473478922	1.002
17	265761	51.136473478922	1.002
17	266167	51.166473478922	1.002
17	266362	51.196473478922	1.002
17	266416	51.226473478922	1.002
17	266717	51.256473478922	1.002
17	266912	51.286473478922	1.002
17	267003	51.316473478922	1.002
17	267013	51.346473478922	1.002
17	267451	51.376473478922	1.002
17	267579	51.406473478922	1.002
17	267589	51.436473478922	1.002
17	267990	51.466473478922	1.002
17	268185	51.496473478922	1.002
17	268239	51.526473478922	1.002
17	268529	51.556473478922	1.002
17	268724	51.586473478922	1.002
17	268815	51.616473478922	1.002
17	268825	51.646473478922	1.002
17	269274	51.676473478922	1.002
17	269402	51.706473478922	1.002
17	269412	51.736473478922	1.002
17	269829	51.766473478922	1.002
17	270024	51.796473478922	1.002
17	270078	51.826473478922	1.002
17	270363	51.856473478922	1.002
17	270558	51.886473478922	1.002
17	270649	51.916473478922	1.002
17	270659	51.946473478922	1.002
17	271092	51.976473478922	1.002
17	271220	52.006473478922	1.002
17	271230	52.036473478922	1.002
17	271631	52.066473478922	1.002
17	271826	52.096473478922	1.002
17	271880	52.126473478922	1.002
17	272186	52.156473478922	1.002
17	272381	52.186473478922	1.002
17	272472	52.216473478922	1.002
17	272482	52.246473478922	1.002
17	272931	52.276473478922	1.002
17	273059	52.306473478922	1.002
17	273069	52.336473478922	1.002
17	273470	52.366473478922	1.002
17	273665	52.396473478922	1.002
17	273719	52.426473478922	1.002
17	274025	52.456473478922	1.002
17	274220	52.486473478922	1.002
17	274311	52.516473478922	1.002
17	274321	52.546473478922	1.002
17	274775	52.576473478922	1.002
17	274903	52.606473478922	1.002
17	274913	52.636473478922	1.002
17	275341	52.666473478922	1.002
17	275536	52.696473478922	1.002
17	275590	52.726473478922	1.002
17	275907	52.756473478922	1.002
17	276102	52.786473478922	1.002
17	276193	52.816473478922	1.002
17	276203	52.846473478922	1.002
17	276630	52.876473478922	1.002
17	276758	52.906473478922	1.002
17	276768	52.936473478922	1.002
17	277196	52.966473478922	1.002
17	277391	52.996473478922	1.002
17	277445	53.026473478922	1.002
17	277762	53.056473478922	1.002
17	277957	53.086473478922	1.002
17	278048	53.116473478922	1.002
17	278058	53.146473478922	1.002
17	278496	53.176473478922	1.002
17	278624	53.206473478922	1.002
17	278634	53.236473478922	1.002
17	279046	53.266473478922	1.002
17	279241	53.296473478922	1.002
17	279295	53.326473478922	1.002
17	279596	53.356473478922	1.002
17	279791	53.386473478922	1.002
17	279882	53.416473478922	1.002
17	279892	53.446473478922	1.002
17	280346	53.476473478922	1.002
17	280474	53.506473478922	1.002
17	280484	53.536473478922	1.002
17	280912	53.566473478922	1.002
17	281107	53.596473478922	1.002
17	281161	53.626473478922	1.002
17	281467	53.656473478922	1.002
17	281662	53.686473478922	1.002
17	281753	53.716473478922	1.002
17	281763	53.746473478922	1.002
17	282206	53.776473478922	1.002
17	282334	53.806473478922	1.002
17	282344	53.836473478922	1.002
17	282756	53.866473478922	1.002
17	282951	53.896473478922	1.002
17	283005	53.926473478922	1.002
17	283306	53.956473478922	1.002
17	283501	53.986473478922	1.002
17	283592	54.016473478922	1.002
17	283602	54.046473478922	1.002
17	284045	54.076473478922	1.002
17	284173	54.106473478922	1.002
17	284183	54.136473478922	1.002
17	284600	54.166473478922	1.002
17	284795	54.196473478922	1.002
17	284849	54.226473478922	1.002
17	285166	54.256473478922	1.002
17	285361	54.286473478922	1.002
17	285452	54.316473478922	1.002
17	285462	54.346473478922	1.002
17	285884	54.376473478922	1.002
17	286012	54.406473478922	1.002
17	286022	54.436473478922	1.002
17	286450	54.466473478922	1.002
17	286645	54.496473478922	1.002
17	286699	54.526473478922	1.002
17	287005	54.556473478922	1.002
17	287200	54.586473478922	1.002
17	287291	54.616473478922	1.002
17	287301	54.646473478922	1.002
17	287734	54.676473478922	1.002
17	287862	54.706473478922	1.002
17	287872	54.736473478922	1.002
17	288284	54.766473478922	1.002
17	288479	54.796473478922	1.002
17	288533	54.826473478922	1.002
17	288850	54.856473478922	1.002
17	289045	54.886473478922	1.002
17	289136	54.916473478922	1.002
17	289146	54.946473478922	1.002
17	289600	54.976473478922	1.002
17	289728	55.006473478922	1.002
17	289738	55.036473478922	1.002
17	290144	55.066473478922	1.002
17	290339	55.096473478922	1.002
17	290393	55.126473478922	1.002
17	290699	55.156473478922	1.002
17	290894	55.186473478922	1.002
17	290985	55.216473478922	1.002
17	290995	55.246473478922	1.002
17	291422	55.276473478922	1.002
17	291550	55.306473478922	1.002
17	291560	55.336473478922	1.002
17	291956	55.366473478922	1.002
17	292151	55.396473478922	1.002
17	292205	55.426473478922	1.002
17	292500	55.456473478922	1.002
17	292695	55.486473478922	1.002
17	292786	55.516473478922	1.002
17	292796	55.546473478922	1.002
17	293234	55.576473478922	1.002
17	293362	55.606473478922	1.002
17	293372	55.636473478922	1.002
17	293800	55.666473478922	1.002
17	293995	55.696473478922	1.002
17	294049	55.726473478922	1.002
17	294355	55.756473478922	1.002
17	294550	55.786473478922	1.002
17	294641	55.816473478922	1.002
17	294651	55.846473478922	1.002
17	295094	55.876473478922	1.002
17	295222	55.906473478922	1.002
17	295232	55.936473478922	1.002
17	295644	55.966473478922	1.002
17	295839	55.996473478922	1.002
17	295893	56.026473478922	1.002
17	296194	56.056473478922	1.002
17	296389	56.086473478922	1.002
17	296480	56.116473478922	1.002
17	296490	56.146473478922	1.002
17	296933	56.176473478922	1.002
17	297061	56.206473478922	1.002
17	297071	56.236473478922	1.002
17	297483	56.266473478922	1.002
17	297678	56.296473478922	1.002
17	297732	56.326473478922	1.002
17	298049	56.356473478922	1.002
17	298244	56.386473478922	1.002
17	298335	56.416473478922	1.002
17	298345	56.446473478922	1.002
17	298783	56.476473478922	1.002
17	298911	56.506473478922	1.002
17	298921	56.536473478922	1.002
17	299354	56.566473478922	1.002
17	299549	56.596473478922	1.002
17	299603	56.626473478922	1.002
17	299888	56.656473478922	1.002
17	300083	56.686473478922	1.002
17	300174	56.716473478922	1.002
17	300184	56.746473478922	1.002
17	300638	56.776473478922	1.002
17	300766	56.806473478922	1.002
17	300776	56.836473478922	1.002
17	301188	56.866473478922	1.002
17	301383	56.896473478922	1.002
17	301437	56.926473478922	1.002
17	301759	56.956473478922	1.002
17	301954	56.986473478922	1.002
17	302045	57.016473478922	1.002
17	302055	57.046473478922	1.002
17	302477	57.076473478922	1.002
17	302605	57.106473478922	1.002
17	302615	57.136473478922	1.002
17	303032	57.166473478922	1.002
17	303227	57.196473478922	1.002
17	303281	57.226473478922	1.002
17	303598	57.256473478922	1.002
17	303793	57.286473478922	1.002
17	303884	57.316473478922	1.002
17	303894	57.346473478922	1.002
17	304364	57.376473478922	1.002
17	304492	57.406473478922	1.002
17	304502	57.436473478922	1.002
17	304919	57.466473478922	1.002
17	305114	57.496473478922	1.002
17	305168	57.526473478922	1.002
17	305485	57.556473478922	1.002
17	305680	57.586473478922	1.002
17	305771	57.616473478922	1.002
17	305781	57.646473478922	1.002
17	306214	57.676473478922	1.002
17	306342	57.706473478922	1.002
17	306352	57.736473478922	1.002
17	306753	57.766473478922	1.002
17	306948	57.796473478922	1.002
17	307002	57.826473478922	1.002
17	307324	57.856473478922	1.002
17	307519	57.886473478922	1.002
17	307610	57.916473478922	1.002
17	307620	57.946473478922	1.002
17	308069	57.976473478922	1.002
17	308197	58.006473478922	1.002
17	308207	58.036473478922	1.002
17	308624	58.066473478922	1.002
17	308819	58.096473478922	1.002
17	308873	58.126473478922	1.002
17	309168	58.156473478922	1.002
17	309363	58.186473478922	1.002
17	309454	58.216473478922	1.002
17	309464	58.246473478922	1.002
17	309897	58.276473478922	1.002
17	310025	58.306473478922	1.002
17	310035	58.336473478922	1.002
17	310452	58.366473478922	1.002
17	310647	58.396473478922	1.002
17	310701	58.426473478922	1.002
17	311002	58.456473478922	1.002
17	311197	58.486473478922	1.002
17	311288	58.516473478922	1.002
17	311298	58.546473478922	1.002
17	311741	58.576473478922	1.002
17	311869	58.606473478922	1.002
17	311879	58.636473478922	1.002
17	312312	58.666473478922	1.002
17	312507	58.696473478922	1.002
17	312561	58.726473478922	1.002
17	312867	58.756473478922	1.002
17	313062	58.786473478922	1.002
17	313153	58.816473478922	1.002
17	313163	58.846473478922	1.002
17	313601	58.876473478922	1.002
17	313729	58.906473478922	1.002
17	313739	58.936473478922	1.002
17	314183	58.966473478922	1.002
17	314378	58.996473478922	1.002
17	314432	59.026473478922	1.002
17	314749	59.056473478922	1.002
17	314944	59.086473478922	1.002
17	315035	59.116473478922	1.002
17	315045	59.146473478922	1.002
17	315499	59.176473478922	1.002
17	315627	59.206473478922	1.002
17	315637	59.236473478922	1.002
17	316043	59.266473478922	1.002
17	316238	59.296473478922	1.002
17	316292	59.326473478922	1.002
17	316587	59.356473478922	1.002
17	316782	59.386473478922	1.002
17	316873	59.416473478922	1.002
17	316883	59.446473478922	1.002
17	317353	59.476473478922	1.002
17	317481	59.506473478922	1.002
17	317491	59.536473478922	1.002
17	317897	59.566473478922	1.002
17	318092	59.596473478922	1.002
17	318146	59.626473478922	1.002
17	318479	59.656473478922	1.002
17	318674	59.686473478922	1.002
17	318765	59.716473478922	1.002
17	318775	59.746473478922	1.002
17	319245	59.776473478922	1.002
17	319373	59.806473478922	1.002
17	319383	59.836473478922	1.002
17	319789	59.866473478922	1.002
17	319984	59.896473478922	1.002
17	320038	59.926473478922	1.002
17	320333	59.956473478922	1.002
17	320528	59.986473478922	1.002
17	320619	60.016473478922	1.002
17	320629	60.046473478922	1.002
17	321056	60.076473478922	1.002
17	321184	60.106473478922	1.002
17	321194	60.136473478922	1.002
17	321611	60.166473478922	1.002
17	321806	60.196473478922	1.002
17	321860	60.226473478922	1.002
17	322166	60.256473478922	1.002
17	322361	60.286473478922	1.002
17	322452	60.316473478922	1.002
17	322462	60.346473478922	1.002
17	322900	60.376473478922	1.002
17	323028	60.406473478922	1.002
17	323038	60.436473478922	1.002
17	323439	60.466473478922	1.002
17	323634	60.496473478922	1.002
17	323688	60.526473478922	1.002
17	324005	60.556473478922	1.002
17	324200	60.586473478922	1.002
17	324291	60.616473478922	1.002
17	324301	60.646473478922	1.002
17	324750	60.676473478922	1.002
17	324878	60.706473478922	1.002
17	324888	60.736473478922	1.002
17	325294	60.766473478922	1.002
17	325489	60.796473478922	1.002
17	325543	60.826473478922	1.002
17	325860	60.856473478922	1.002
17	326055	60.886473478922	1.002
17	326146	60.916473478922	1.002
17	326156	60.946473478922	1.002
17	326610	60.976473478922	1.002
17	326738	61.006473478922	1.002
17	326748	61.036473478922	1.002
17	327170	61.066473478922	1.002
17	327365	61.096473478922	1.002
17	327419	61.126473478922	1.002
17	327709	61.156473478922	1.002
17	327904	61.186473478922	1.002
17	327995	61.216473478922	1.002
17	328005	61.246473478922	1.002
17	328454	61.276473478922	1.002
17	328582	61.306473478922	1.002
17	328592	61.336473478922	1.002
17	329004	61.366473478922	1.002
17	329199	61.396473478922	1.002
17	329253	61.426473478922	1.002
17	329554	61.456473478922	1.002
17	329749	61.486473478922	1.002
16	47	0.976473478922	1
16	65	1.006473478922	2
16	67	1.036473478922	3
16	97	1.066473478922	4
16	112	1.096473478922	5
16	130	1.126473478922	6
16	147	1.156473478922	7
16	162	1.186473478922	8
16	180	1.216473478922	9
16	182	1.246473478922	10
16	212	1.276473478922	11
16	230	1.306473478922	12
16	232	1.336473478922	13
16	262	1.366473478922	14
16	277	1.396473478922	15
16	295	1.426473478922	16
16	312	1.456473478922	17
16	327	1.486473478922	18
16	345	1.516473478922	19
16	347	1.546473478922	20
16	377	1.576473478922	21
16	395	1.606473478922	22
16	397	1.636473478922	23
16	427	1.666473478922	24
16	442	1.696473478922	25
16	460	1.726473478922	26
16	477	1.756473478922	27
16	492	1.786473478922	28
16	510	1.816473478922	29
16	512	1.846473478922	30
16	542	1.876473478922	31
16	560	1.906473478922	32
16	562	1.936473478922	33
16	592	1.966473478922	34
16	607	1.996473478922	35
16	625	2.026473478922	36
16	642	2.056473478922	37
16	657	2.086473478922	38
16	675	2.116473478922	39
16	677	2.146473478922	40
16	707	2.176473478922	41
16	725	2.206473478922	42
16	727	2.236473478922	43
16	757	2.266473478922	44
16	772	2.296473478922	45
16	790	2.326473478922	46
16	807	2.356473478922	47
16	822	2.386473478922	48
16	840	2.416473478922	49
16	842	2.446473478922	50
16	872	2.476473478922	51
16	890	2.506473478922	52
16	892	2.536473478922	53
16	922	2.566473478922	54
16	937	2.596473478922	55
16	955	2.626473478922	56
16	972	2.656473478922	57
16	987	2.686473478922	58
16	1005	2.716473478922	59
16	1007	2.746473478922	60
16	1037	2.776473478922	61
16	1055	2.806473478922	62
16	1057	2.836473478922	63
16	1087	2.866473478922	64
16	1102	2.896473478922	65
16	1120	2.926473478922	66
16	1137	2.956473478922	67
16	1152	2.986473478922	68
16	1170	3.016473478922	69
16	1172	3.046473478922	70
16	1202	3.076473478922	71
16	1220	3.106473478922	72
16	1222	3.136473478922	73
16	1265	3.166473478922	74
16	1286	3.196473478922	75
16	1311	3.226473478922	76
16	1335	3.256473478922	77
16	1356	3.286473478922	78
16	1381	3.316473478922	79
16	1383	3.346473478922	80
16	1426	3.376473478922	81
16	1451	3.406473478922	82
16	1453	3.436473478922	83
16	1496	3.466473478922	84
16	1517	3.496473478922	85
16	1542	3.526473478922	86
16	1566	3.556473478922	87
16	1587	3.586473478922	88
16	1612	3.616473478922	89
16	1614	3.646473478922	90
16	1657	3.676473478922	91
16	1682	3.706473478922	92
16	1684	3.736473478922	93
16	1748	3.766473478922	95
16	1790	3.796473478922	97
16	1817	3.826473478922	99
16	1881	3.856473478922	101
16	1923	3.886473478922	103
16	1950	3.916473478922	105
16	1954	3.946473478922	107
16	2049	3.976473478922	109
16	2076	4.006473478922	111
16	2080	4.036473478922	113
16	2175	4.066473478922	115
16	2217	4.096473478922	117
16	2244	4.126473478922	119
16	2308	4.156473478922	121
16	2350	4.186473478922	123
16	2377	4.216473478922	125
16	2381	4.246473478922	127
16	2476	4.276473478922	129
16	2503	4.306473478922	131
16	2507	4.336473478922	133
16	2602	4.366473478922	135
16	2644	4.396473478922	137
16	2671	4.426473478922	139
16	2735	4.456473478922	141
16	2777	4.486473478922	143
16	2804	4.516473478922	145
16	2808	4.546473478922	147
16	2910	4.576473478922	149
16	2937	4.606473478922	151
16	2941	4.636473478922	153
16	3043	4.666473478922	155
16	3085	4.696473478922	157
16	3112	4.726473478922	159
16	3176	4.756473478922	161
16	3218	4.786473478922	163
16	3245	4.816473478922	165
16	3249	4.846473478922	167
16	3344	4.876473478922	169
16	3371	4.906473478922	171
16	3375	4.936473478922	173
16	3470	4.966473478922	175
16	3512	4.996473478922	177
16	3539	5.026473478922	179
16	3603	5.056473478922	181
16	3645	5.086473478922	183
16	3672	5.116473478922	185
16	3676	5.146473478922	187
16	3771	5.176473478922	189
16	3798	5.206473478922	191
16	3802	5.236473478922	193
16	3904	5.266473478922	195
16	3946	5.296473478922	197
16	3973	5.326473478922	199
16	4037	5.356473478922	201
16	4079	5.386473478922	203
16	4106	5.416473478922	205
16	4110	5.446473478922	207
16	4212	5.476473478922	209
16	4239	5.506473478922	211
16	4243	5.536473478922	213
16	4345	5.566473478922	215
16	4387	5.596473478922	217
16	4414	5.626473478922	219
16	4478	5.656473478922	221
16	4520	5.686473478922	223
16	4547	5.716473478922	225
16	4551	5.746473478922	227
16	4653	5.776473478922	229
16	4680	5.806473478922	231
16	4684	5.836473478922	233
16	4786	5.866473478922	235
16	4828	5.896473478922	237
16	4855	5.926473478922	239
16	4919	5.956473478922	241
16	4961	5.986473478922	243
16	4988	6.016473478922	245
16	4992	6.046473478922	247
16	5087	6.076473478922	249
16	5114	6.106473478922	251
16	5118	6.136473478922	253
16	5241	6.166473478922	255
16	5295	6.196473478922	257
16	5329	6.226473478922	259
16	5412	6.256473478922	261
16	5466	6.286473478922	263
16	5500	6.316473478922	265
16	5504	6.346473478922	267
16	5637	6.376473478922	269
16	5671	6.406473478922	271
16	5675	6.436473478922	273
16	5808	6.466473478922	275
16	5862	6.496473478922	277
16	5896	6.526473478922	279
16	5979	6.556473478922	281
16	6033	6.586473478922	283
16	6067	6.616473478922	285
16	6071	6.646473478922	287
16	6204	6.676473478922	289
16	6238	6.706473478922	291
16	6242	6.736473478922	293
16	6375	6.766473478922	295
16	6429	6.796473478922	297
16	6463	6.826473478922	299
16	6546	6.856473478922	301
16	6600	6.886473478922	303
16	6634	6.916473478922	305
16	6638	6.946473478922	307
16	6771	6.976473478922	309
16	6805	7.006473478922	311
16	6809	7.036473478922	313
16	6942	7.066473478922	315
16	7023	7.096473478922	318
16	7059	7.126473478922	321
16	7184	7.156473478922	324
16	7265	7.186473478922	327
16	7326	7.216473478922	330
16	7332	7.246473478922	333
16	7500	7.276473478922	336
16	7561	7.306473478922	339
16	7567	7.336473478922	342
16	7725	7.366473478922	345
16	7806	7.396473478922	348
16	7842	7.426473478922	351
16	7967	7.456473478922	354
16	8048	7.486473478922	357
16	8109	7.516473478922	360
16	8115	7.546473478922	363
16	8290	7.576473478922	366
16	8351	7.606473478922	369
16	8357	7.636473478922	372
16	8542	7.666473478922	375
16	8623	7.696473478922	378
16	8659	7.726473478922	381
16	8794	7.756473478922	384
16	8875	7.786473478922	387
16	8936	7.816473478922	390
16	8942	7.846473478922	393
16	9127	7.876473478922	396
16	9188	7.906473478922	399
16	9194	7.936473478922	402
16	9369	7.966473478922	405
16	9450	7.996473478922	408
16	9486	8.026473478922	411
16	9621	8.056473478922	414
16	9702	8.086473478922	417
16	9763	8.116473478922	420
16	9769	8.146473478922	423
16	9944	8.176473478922	426
16	10005	8.206473478922	429
16	10011	8.236473478922	432
16	10196	8.266473478922	435
16	10277	8.296473478922	438
16	10313	8.326473478922	441
16	10438	8.356473478922	444
16	10519	8.386473478922	447
16	10580	8.416473478922	450
16	10586	8.446473478922	453
16	10761	8.476473478922	456
16	10822	8.506473478922	459
16	10828	8.536473478922	462
16	11003	8.566473478922	465
16	11084	8.596473478922	468
16	11120	8.626473478922	471
16	11235	8.656473478922	474
16	11316	8.686473478922	477
16	11377	8.716473478922	480
16	11383	8.746473478922	483
16	11548	8.776473478922	486
16	11609	8.806473478922	489
16	11615	8.836473478922	492
16	11790	8.866473478922	495
16	11871	8.896473478922	498
16	11907	8.926473478922	501
16	12042	8.956473478922	504
16	12123	8.986473478922	507
16	12184	9.016473478922	510
16	12190	9.046473478922	513
16	12375	9.076473478922	516
16	12436	9.106473478922	519
16	12442	9.136473478922	522
16	12670	9.166473478922	525
16	12769	9.196473478922	528
16	12812	9.226473478922	531
16	12965	9.256473478922	534
16	13064	9.286473478922	537
16	13138	9.316473478922	540
16	13146	9.346473478922	544
16	13412	9.376473478922	548
16	13519	9.406473478922	552
16	13527	9.436473478922	556
16	13797	9.466473478922	560
16	13929	9.496473478922	564
16	13974	9.526473478922	568
16	14191	9.556473478922	572
16	14323	9.586473478922	576
16	14399	9.616473478922	580
16	14407	9.646473478922	584
16	14730	9.676473478922	588
16	14837	9.706473478922	592
16	14845	9.736473478922	596
16	15112	9.766473478922	600
16	15244	9.796473478922	604
16	15289	9.826473478922	608
16	15493	9.856473478922	612
16	15625	9.886473478922	616
16	15701	9.916473478922	620
16	15709	9.946473478922	624
16	16010	9.976473478922	628
16	16117	10.006473478922	632
16	16125	10.036473478922	636
16	16391	10.066473478922	640
16	16523	10.096473478922	644
16	16568	10.126473478922	648
16	16785	10.156473478922	652
16	16917	10.186473478922	656
16	16993	10.216473478922	660
16	17001	10.246473478922	664
16	17302	10.276473478922	668
16	17409	10.306473478922	672
16	17417	10.336473478922	676
16	17696	10.366473478922	680
16	17828	10.396473478922	684
16	17873	10.426473478922	688
16	18090	10.456473478922	692
16	18222	10.486473478922	696
16	18298	10.516473478922	700
16	18306	10.546473478922	704
16	18616	10.576473478922	708
16	18723	10.606473478922	712
16	18731	10.636473478922	716
16	18997	10.666473478922	720
16	19129	10.696473478922	724
16	19174	10.726473478922	728
16	19378	10.756473478922	732
16	19510	10.786473478922	736
16	19586	10.816473478922	740
16	19594	10.846473478922	744
16	19891	10.876473478922	748
16	19998	10.906473478922	752
16	20006	10.936473478922	756
16	20285	10.966473478922	760
16	20417	10.996473478922	764
16	20462	11.026473478922	768
16	20679	11.056473478922	772
16	20811	11.086473478922	776
16	20887	11.116473478922	780
16	20895	11.146473478922	784
16	21183	11.176473478922	788
16	21290	11.206473478922	792
16	21298	11.236473478922	796
16	21577	11.266473478922	800
16	21709	11.296473478922	804
16	21754	11.326473478922	808
16	21971	11.356473478922	812
16	22103	11.386473478922	816
16	22179	11.416473478922	820
16	22187	11.446473478922	824
16	22484	11.476473478922	828
16	22591	11.506473478922	832
16	22599	11.536473478922	836
16	22878	11.566473478922	840
16	23010	11.596473478922	844
16	23055	11.626473478922	848
16	23263	11.656473478922	852
16	23395	11.686473478922	856
16	23471	11.716473478922	860
16	23479	11.746473478922	864
16	23780	11.776473478922	868
16	23887	11.806473478922	872
16	23895	11.836473478922	876
16	24152	11.866473478922	880
16	24284	11.896473478922	884
16	24329	11.926473478922	888
16	24546	11.956473478922	892
16	24678	11.986473478922	896
16	24754	12.016473478922	900
16	24762	12.046473478922	904
16	25059	12.076473478922	908
16	25166	12.106473478922	912
16	25174	12.136473478922	916
16	25505	12.166473478922	920
16	25661	12.196473478922	924
16	25713	12.226473478922	928
16	25956	12.256473478922	932
16	26112	12.286473478922	936
16	26201	12.316473478922	940
16	26211	12.346473478922	945
16	26613	12.376473478922	950
16	26741	12.406473478922	955
16	26751	12.436473478922	960
16	27184	12.466473478922	965
16	27379	12.496473478922	970
16	27433	12.526473478922	975
16	27766	12.556473478922	980
[...]
14	227066	44.800251984713	0.002
14	227089	44.850251984713	0.001
14	227749	44.900251984713	0.002
14	227769	44.950251984713	0.001
14	228326	45.000251984713	0.002
14	228351	45.050251984713	0.001
14	228889	45.100251984713	0.002
14	228912	45.150251984713	0.001
14	229572	45.200251984713	0.002
14	229592	45.250251984713	0.001
14	230160	45.300251984713	0.002
14	230185	45.350251984713	0.001
14	230750	45.400251984713	0.002
14	230773	45.450251984713	0.001
14	231422	45.500251984713	0.002
14	231442	45.550251984713	0.001
14	232026	45.600251984713	0.002
14	232051	45.650251984713	0.001
14	232605	45.700251984713	0.002
14	232628	45.750251984713	0.001
14	233266	45.800251984713	0.002
14	233286	45.850251984713	0.001
14	233843	45.900251984713	0.002
14	233868	45.950251984713	0.001
14	234438	46.000251984713	0.002
14	234461	46.050251984713	0.001
14	235110	46.100251984713	0.002
14	235130	46.150251984713	0.001
14	235698	46.200251984713	0.002
14	235723	46.250251984713	0.001
14	236304	46.300251984713	0.002
14	236327	46.350251984713	0.001
14	236954	46.400251984713	0.002
14	236974	46.450251984713	0.001
14	237547	46.500251984713	0.002
14	237572	46.550251984713	0.001
14	238131	46.600251984713	0.002
14	238154	46.650251984713	0.001
14	238787	46.700251984713	0.002
14	238807	46.750251984713	0.001
14	239375	46.800251984713	0.002
14	239400	46.850251984713	0.001
14	239965	46.900251984713	0.002
14	239988	46.950251984713	0.001
14	240615	47.000251984713	0.002
14	240635	47.050251984713	0.001
14	241203	47.100251984713	0.002
14	241228	47.150251984713	0.001
14	241782	47.200251984713	0.002
14	241805	47.250251984713	0.001
14	242438	47.300251984713	0.002
14	242458	47.350251984713	0.001
14	243015	47.400251984713	0.002
14	243040	47.450251984713	0.001
14	243594	47.500251984713	0.002
14	243617	47.550251984713	0.001
14	244266	47.600251984713	0.002
14	244286	47.650251984713	0.001
14	244859	47.700251984713	0.002
14	244884	47.750251984713	0.001
14	245438	47.800251984713	0.002
14	245461	47.850251984713	0.001
14	246110	47.900251984713	0.002
14	246130	47.950251984713	0.001
14	246703	48.000251984713	0.002
14	246728	48.050251984713	0.001
14	247282	48.100251984713	0.002
14	247305	48.150251984713	0.001
14	247949	48.200251984713	0.002
14	247969	48.250251984713	0.001
14	248537	48.300251984713	0.002
14	248562	48.350251984713	0.001
14	249121	48.400251984713	0.002
14	249144	48.450251984713	0.001
14	249782	48.500251984713	0.002
14	249802	48.550251984713	0.001
14	250359	48.600251984713	0.002
14	250384	48.650251984713	0.001
14	250965	48.700251984713	0.002
14	250988	48.750251984713	0.001
14	251616	48.800251984713	0.002
14	251636	48.850251984713	0.001
14	252204	48.900251984713	0.002
14	252229	48.950251984713	0.001
14	252799	49.000251984713	0.002
14	252822	49.050251984713	0.001
14	253471	49.100251984713	0.002
14	253491	49.150251984713	0.001
14	254064	49.200251984713	0.002
14	254089	49.250251984713	0.001
14	254654	49.300251984713	0.002
14	254677	49.350251984713	0.001
14	255321	49.400251984713	0.002
14	255341	49.450251984713	0.001
14	255930	49.500251984713	0.002
14	255955	49.550251984713	0.001
14	256509	49.600251984713	0.002
14	256532	49.650251984713	0.001
14	257181	49.700251984713	0.002
14	257201	49.750251984713	0.001
14	257769	49.800251984713	0.002
14	257794	49.850251984713	0.001
14	258348	49.900251984713	0.002
14	258371	49.950251984713	0.001
14	259031	50.000251984713	0.002
14	259051	50.050251984713	0.001
14	259603	50.100251984713	0.002
14	259628	50.150251984713	0.001
14	260187	50.200251984713	0.002
14	260210	50.250251984713	0.001
14	260843	50.300251984713	0.002
14	260863	50.350251984713	0.001
14	261436	50.400251984713	0.002
14	261461	50.450251984713	0.001
14	262015	50.500251984713	0.002
14	262038	50.550251984713	0.001
14	262703	50.600251984713	0.002
14	262723	50.650251984713	0.001
14	263312	50.700251984713	0.002
14	263337	50.750251984713	0.001
14	263891	50.800251984713	0.002
14	263914	50.850251984713	0.001
14	264574	50.900251984713	0.002
14	264594	50.950251984713	0.001
14	265167	51.000251984713	0.002
14	265192	51.050251984713	0.001
14	265746	51.100251984713	0.002
14	265769	51.150251984713	0.001
14	266407	51.200251984713	0.002
14	266427	51.250251984713	0.001
14	266995	51.300251984713	0.002
14	267020	51.350251984713	0.001
14	267574	51.400251984713	0.002
14	267597	51.450251984713	0.001
14	268230	51.500251984713	0.002
14	268250	51.550251984713	0.001
14	268807	51.600251984713	0.002
14	268832	51.650251984713	0.001
14	269397	51.700251984713	0.002
14	269420	51.750251984713	0.001
14	270069	51.800251984713	0.002
14	270089	51.850251984713	0.001
14	270641	51.900251984713	0.002
14	270666	51.950251984713	0.001
14	271215	52.000251984713	0.002
14	271238	52.050251984713	0.001
14	271871	52.100251984713	0.002
14	271891	52.150251984713	0.001
14	272464	52.200251984713	0.002
14	272489	52.250251984713	0.001
14	273054	52.300251984713	0.002
14	273077	52.350251984713	0.001
14	273710	52.400251984713	0.002
14	273730	52.450251984713	0.001
14	274303	52.500251984713	0.002
14	274328	52.550251984713	0.001
14	274898	52.600251984713	0.002
14	274921	52.650251984713	0.001
14	275581	52.700251984713	0.002
14	275601	52.750251984713	0.001
14	276185	52.800251984713	0.002
14	276210	52.850251984713	0.001
14	276753	52.900251984713	0.002
14	276776	52.950251984713	0.001
14	277436	53.000251984713	0.002
14	277456	53.050251984713	0.001
14	278040	53.100251984713	0.002
14	278065	53.150251984713	0.001
14	278619	53.200251984713	0.002
14	278642	53.250251984713	0.001
14	279286	53.300251984713	0.002
14	279306	53.350251984713	0.001
14	279874	53.400251984713	0.002
14	279899	53.450251984713	0.001
14	280469	53.500251984713	0.002
14	280492	53.550251984713	0.001
14	281152	53.600251984713	0.002
14	281172	53.650251984713	0.001
14	281745	53.700251984713	0.002
14	281770	53.750251984713	0.001
14	282329	53.800251984713	0.002
14	282352	53.850251984713	0.001
14	282996	53.900251984713	0.002
14	283016	53.950251984713	0.001
14	283584	54.000251984713	0.002
14	283609	54.050251984713	0.001
14	284168	54.100251984713	0.002
14	284191	54.150251984713	0.001
14	284840	54.200251984713	0.002
14	284860	54.250251984713	0.001
14	285444	54.300251984713	0.002
14	285469	54.350251984713	0.001
14	286007	54.400251984713	0.002
14	286030	54.450251984713	0.001
14	286690	54.500251984713	0.002
14	286710	54.550251984713	0.001
14	287283	54.600251984713	0.002
14	287308	54.650251984713	0.001
14	287857	54.700251984713	0.002
14	287880	54.750251984713	0.001
14	288524	54.800251984713	0.002
14	288544	54.850251984713	0.001
14	289128	54.900251984713	0.002
14	289153	54.950251984713	0.001
14	289723	55.000251984713	0.002
14	289746	55.050251984713	0.001
14	290384	55.100251984713	0.002
14	290404	55.150251984713	0.001
14	290977	55.200251984713	0.002
14	291002	55.250251984713	0.001
14	291545	55.300251984713	0.002
14	291568	55.350251984713	0.001
14	292196	55.400251984713	0.002
14	292216	55.450251984713	0.001
14	292778	55.500251984713	0.002
14	292803	55.550251984713	0.001
14	293357	55.600251984713	0.002
14	293380	55.650251984713	0.001
14	294040	55.700251984713	0.002
14	294060	55.750251984713	0.001
14	294633	55.800251984713	0.002
14	294658	55.850251984713	0.001
14	295217	55.900251984713	0.002
14	295240	55.950251984713	0.001
14	295884	56.000251984713	0.002
14	295904	56.050251984713	0.001
14	296472	56.100251984713	0.002
14	296497	56.150251984713	0.001
14	297056	56.200251984713	0.002
14	297079	56.250251984713	0.001
14	297723	56.300251984713	0.002
14	297743	56.350251984713	0.001
14	298327	56.400251984713	0.002
14	298352	56.450251984713	0.001
14	298906	56.500251984713	0.002
14	298929	56.550251984713	0.001
14	299594	56.600251984713	0.002
14	299614	56.650251984713	0.001
14	300166	56.700251984713	0.002
14	300191	56.750251984713	0.001
14	300761	56.800251984713	0.002
14	300784	56.850251984713	0.001
14	301428	56.900251984713	0.002
14	301448	56.950251984713	0.001
14	302037	57.000251984713	0.002
14	302062	57.050251984713	0.001
14	302600	57.100251984713	0.002
14	302623	57.150251984713	0.001
14	303272	57.200251984713	0.002
14	303292	57.250251984713	0.001
14	303876	57.300251984713	0.002
14	303901	57.350251984713	0.001
14	304487	57.400251984713	0.002
14	304510	57.450251984713	0.001
14	305159	57.500251984713	0.002
14	305179	57.550251984713	0.001
14	305763	57.600251984713	0.002
14	305788	57.650251984713	0.001
14	306337	57.700251984713	0.002
14	306360	57.750251984713	0.001
14	306993	57.800251984713	0.002
14	307013	57.850251984713	0.001
14	307602	57.900251984713	0.002
14	307627	57.950251984713	0.001
14	308192	58.000251984713	0.002
14	308215	58.050251984713	0.001
14	308864	58.100251984713	0.002
14	308884	58.150251984713	0.001
14	309446	58.200251984713	0.002
14	309471	58.250251984713	0.001
14	310020	58.300251984713	0.002
14	310043	58.350251984713	0.001
14	310692	58.400251984713	0.002
14	310712	58.450251984713	0.001
14	311280	58.500251984713	0.002
14	311305	58.550251984713	0.001
14	311864	58.600251984713	0.002
14	311887	58.650251984713	0.001
14	312552	58.700251984713	0.002
14	312572	58.750251984713	0.001
14	313145	58.800251984713	0.002
14	313170	58.850251984713	0.001
14	313724	58.900251984713	0.002
14	313747	58.950251984713	0.001
14	314423	59.000251984713	0.002
14	314443	59.050251984713	0.001
14	315027	59.100251984713	0.002
14	315052	59.150251984713	0.001
14	315622	59.200251984713	0.002
14	315645	59.250251984713	0.001
14	316283	59.300251984713	0.002
14	316303	59.350251984713	0.001
14	316865	59.400251984713	0.002
14	316890	59.450251984713	0.001
14	317476	59.500251984713	0.002
14	317499	59.550251984713	0.001
14	318137	59.600251984713	0.002
14	318157	59.650251984713	0.001
14	318757	59.700251984713	0.002
14	318782	59.750251984713	0.001
14	319368	59.800251984713	0.002
14	319391	59.850251984713	0.001
14	320029	59.900251984713	0.002
14	320049	59.950251984713	0.001
14	320611	60.000251984713	0.002
14	320636	60.050251984713	0.001
14	321179	60.100251984713	0.002
14	321202	60.150251984713	0.001
14	321851	60.200251984713	0.002
14	321871	60.250251984713	0.001
14	322444	60.300251984713	0.002
14	322469	60.350251984713	0.001
14	323023	60.400251984713	0.002
14	323046	60.450251984713	0.001
14	323679	60.500251984713	0.002
14	323699	60.550251984713	0.001
14	324283	60.600251984713	0.002
14	324308	60.650251984713	0.001
14	324873	60.700251984713	0.002
14	324896	60.750251984713	0.001
14	325534	60.800251984713	0.002
14	325554	60.850251984713	0.001
14	326138	60.900251984713	0.002
14	326163	60.950251984713	0.001
14	326733	61.000251984713	0.002
14	326756	61.050251984713	0.001
14	327410	61.100251984713	0.002
14	327430	61.150251984713	0.001
14	327987	61.200251984713	0.002
14	328012	61.250251984713	0.001
14	328577	61.300251984713	0.002
14	328600	61.350251984713	0.001
14	329244	61.400251984713	0.002
14	329264	61.450251984713	0.001
14	329831	61.500251984713	0.002
14	329851	61.550251984713	0.001
14	330237	61.600251984713	0.002
14	330255	61.650251984713	0.001
14	330697	61.700251984713	0.002
14	330714	61.750251984713	0.001
14	331092	61.800251984713	0.002
14	331112	61.850251984713	0.001
14	331498	61.900251984713	0.002
14	331516	61.950251984713	0.001
14	331945	62.000251984713	0.002
14	331962	62.050251984713	0.001
14	332349	62.100251984713	0.002
14	332369	62.150251984713	0.001
14	332755	62.200251984713	0.002
14	332773	62.250251984713	0.001
14	333215	62.300251984713	0.002
14	333232	62.350251984713	0.001
14	333615	62.400251984713	0.002
14	333635	62.450251984713	0.001
14	334034	62.500251984713	0.002
14	334052	62.550251984713	0.001
14	334494	62.600251984713	0.002
14	334511	62.650251984713	0.001
14	334920	62.700251984713	0.002
14	334940	62.750251984713	0.001
14	335335	62.800251984713	0.002
14	335353	62.850251984713	0.001
14	335782	62.900251984713	0.002
14	335799	62.950251984713	0.001
14	336199	63.000251984713	0.002
14	336219	63.050251984713	0.001
14	336614	63.100251984713	0.002
14	336632	63.150251984713	0.001
14	337065	63.200251984713	0.002
14	337082	63.250251984713	0.001
14	337469	63.300251984713	0.002
14	337489	63.350251984713	0.001
14	337884	63.400251984713	0.002
14	337902	63.450251984713	0.001
14	338335	63.500251984713	0.002
14	338352	63.550251984713	0.001
14	338748	63.600251984713	0.002
14	338768	63.650251984713	0.001
14	339150	63.700251984713	0.002
14	339168	63.750251984713	0.001
14	339597	63.800251984713	0.002
14	339614	63.850251984713	0.001
14	340010	63.900251984713	0.002
14	340030	63.950251984713	0.001
14	340407	64.000251984713	0.002
14	340425	64.050251984713	0.001
14	340854	64.100251984713	0.002
14	340871	64.150251984713	0.001
14	341267	64.200251984713	0.002
14	341287	64.250251984713	0.001
14	341695	64.300251984713	0.002
14	341713	64.350251984713	0.001
14	342133	64.400251984713	0.002
14	342150	64.450251984713	0.001
14	342533	64.500251984713	0.002
14	342553	64.550251984713	0.001
14	342948	64.600251984713	0.002
14	342966	64.650251984713	0.001
14	343407	64.700251984713	0.002
14	343420	64.750251984713	0.001
14	343675	64.800251984713	0.002
14	343690	64.850251984713	0.001
14	343934	64.900251984713	0.002
14	343948	64.950251984713	0.001
14	344214	65.000251984713	0.002
14	344227	65.050251984713	0.001
14	344482	65.100251984713	0.002
14	344497	65.150251984713	0.001
14	344751	65.200251984713	0.002
14	344765	65.250251984713	0.001
14	345021	65.300251984713	0.002
14	345034	65.350251984713	0.001
14	345289	65.400251984713	0.002
14	345304	65.450251984713	0.001
14	345558	65.500251984713	0.002
14	345572	65.550251984713	0.001
14	345828	65.600251984713	0.002
14	345841	65.650251984713	0.001
14	346096	65.700251984713	0.002
14	346111	65.750251984713	0.001
14	346375	65.800251984713	0.002
14	346389	65.850251984713	0.001
14	346645	65.900251984713	0.002
14	346658	65.950251984713	0.001
14	346923	66.000251984713	0.002
14	346938	66.050251984713	0.001
14	347182	66.100251984713	0.002
14	347196	66.150251984713	0.001
14	347445	66.200251984713	0.002
14	347458	66.250251984713	0.001
14	347723	66.300251984713	0.002
14	347738	66.350251984713	0.001
14	347992	66.400251984713	0.002
14	348006	66.450251984713	0.001
14	348272	66.500251984713	0.002
14	348285	66.550251984713	0.001
14	348540	66.600251984713	0.002
14	348555	66.650251984713	0.001
14	348809	66.700251984713	0.002
14	348823	66.750251984713	0.001
14	349079	66.800251984713	0.002
14	349092	66.850251984713	0.001
14	349340	66.900251984713	0.002
14	349355	66.950251984713	0.001
14	349619	67.000251984713	0.002
14	349633	67.050251984713	0.001
14	349899	67.100251984713	0.002
14	349912	67.150251984713	0.001
14	350167	67.200251984713	0.002
14	350182	67.250251984713	0.001
14	350426	67.300251984713	0.002
14	350440	67.350251984713	0.001
14	350689	67.400251984713	0.002
14	350702	67.450251984713	0.001
14	350947	67.500251984713	0.002
14	350962	67.550251984713	0.001
14	351208	67.600251984713	0.002
14	351217	67.650251984713	0.001
14	351355	67.700251984713	0.002
14	351364	67.750251984713	0.001
14	351488	67.800251984713	0.002
14	351499	67.850251984713	0.001
14	351635	67.900251984713	0.002
14	351644	67.950251984713	0.001
14	351789	68.000251984713	0.002
14	351798	68.050251984713	0.001
14	351922	68.100251984713	0.002
14	351933	68.150251984713	0.001
14	352076	68.200251984713	0.002
14	352085	68.250251984713	0.001
14	352230	68.300251984713	0.002
14	352239	68.350251984713	0.001
14	352356	68.400251984713	0.002
14	352367	68.450251984713	0.001
14	352503	68.500251984713	0.002
14	352512	68.550251984713	0.001
14	352657	68.600251984713	0.002
14	352666	68.650251984713	0.001
14	352790	68.700251984713	0.002
14	352801	68.750251984713	0.001
14	352937	68.800251984713	0.002
14	352946	68.850251984713	0.001
14	353091	68.900251984713	0.002
14	353100	68.950251984713	0.001
14	353224	69.000251984713	0.002
14	353235	69.050251984713	0.001
14	353378	69.100251984713	0.002
14	353387	69.150251984713	0.001
14	353532	69.200251984713	0.002
14	353541	69.250251984713	0.001
14	353665	69.300251984713	0.002
14	353676	69.350251984713	0.001
14	353812	69.400251984713	0.002
14	353821	69.450251984713	0.001
14	353959	69.500251984713	0.002
14	353968	69.550251984713	0.001
14	354092	69.600251984713	0.002
14	354103	69.650251984713	0.001
14	354246	69.700251984713	0.002
14	354255	69.750251984713	0.001
14	354393	69.800251984713	0.002
14	354402	69.850251984713	0.001
14	354526	69.900251984713	0.002
14	354537	69.950251984713	0.001
14	354680	70.000251984713	0.002
14	354689	70.050251984713	0.001
14	354834	70.100251984713	0.002
14	354843	70.150251984713	0.001
14	354960	70.200251984713	0.002
14	354971	70.250251984713	0.001
14	355107	70.300251984713	0.002
14	355116	70.350251984713	0.001
14	355261	70.400251984713	0.002
14	355270	70.450251984713	0.001
14	355394	70.500251984713	0.002
14	355405	70.550251984713	0.001
14	355548	70.600251984713	0.002
14	355557	70.650251984713	0.001
14	355702	70.700251984713	0.002
14	355706	70.750251984713	0.001
14	355752	70.800251984713	0.002
14	355758	70.850251984713	0.001
14	355802	70.900251984713	0.002
14	355808	70.950251984713	0.001
14	355867	71.000251984713	0.002
14	355871	71.050251984713	0.001
14	355917	71.100251984713	0.002
14	355923	71.150251984713	0.001
14	355967	71.200251984713	0.002
14	355973	71.250251984713	0.001
14	356032	71.300251984713	0.002
14	356036	71.350251984713	0.001
14	356082	71.400251984713	0.002
14	356088	71.450251984713	0.001
14	356132	71.500251984713	0.002
14	356138	71.550251984713	0.001
14	356197	71.600251984713	0.002
14	356201	71.650251984713	0.001
14	356247	71.700251984713	0.002
14	356253	71.750251984713	0.001
14	356297	71.800251984713	0.002
14	356303	71.850251984713	0.001
14	356362	71.900251984713	0.002
14	356366	71.950251984713	0.001
14	356412	72.000251984713	0.002
14	356418	72.050251984713	0.001
14	356462	72.100251984713	0.002
14	356468	72.150251984713	0.001
14	356527	72.200251984713	0.002
14	356531	72.250251984713	0.001
14	356577	72.300251984713	0.002
14	356583	72.350251984713	0.001
14	356627	72.400251984713	0.002
14	356633	72.450251984713	0.001
14	356692	72.500251984713	0.002
14	356696	72.550251984713	0.001
14	356742	72.600251984713	0.002
14	356748	72.650251984713	0.001
14	356792	72.700251984713	0.002
14	356798	72.750251984713	0.001
14	356857	72.800251984713	0.002
14	356861	72.850251984713	0.001
14	356907	72.900251984713	0.002
14	356913	72.950251984713	0.001
14	356957	73.000251984713	0.002
14	356963	73.050251984713	0.001
14	357022	73.100251984713	0.002
14	357026	73.150251984713	0.001
14	357072	73.200251984713	0.002
14	357078	73.250251984713	0.001
14	357122	73.300251984713	0.002
14	357128	73.350251984713	0.001
14	357187	73.400251984713	0.002
14	357191	73.450251984713	0.001
14	357237	73.500251984713	0.002
14	357243	73.550251984713	0.001
14	357287	73.600251984713	0.002
14	357293	73.650251984713	0.001
14	357351	73.700251984713	0.002
14	357352	73.750251984713	0.001
14	357353	73.800251984713	0.002
14	357354	73.850251984713	0.001
14	357355	73.900251984713	0.002
14	357356	73.950251984713	0.001
14	357357	74.000251984713	0.002
14	357358	74.050251984713	0.001
14	357359	74.100251984713	0.002
14	357360	74.150251984713	0.001
14	357361	74.200251984713	0.002
14	357362	74.250251984713	0.001
14	357363	74.300251984713	0.002
14	357364	74.350251984713	0.001
14	357365	74.400251984713	0.002
14	357366	74.450251984713	0.001
14	357367	74.500251984713	0.002
14	357368	74.550251984713	0.001
14	357369	74.600251984713	0.002
14	357370	74.650251984713	0.001
14	357371	74.700251984713	0.002
14	357372	74.750251984713	0.001
14	357373	74.800251984713	0.002
14	357374	74.850251984713	0.001
14	357375	74.900251984713	0.002
14	357376	74.950251984713	0.001
14	357377	75.000251984713	0.002
14	357378	75.050251984713	0.001
14	357379	75.100251984713	0.002
14	357380	75.150251984713	0.001
14	357381	75.200251984713	0.002
14	357382	75.250251984713	0.001
14	357383	75.300251984713	0.002
14	357384	75.350251984713	0.001
14	357385	75.400251984713	0.002
14	357386	75.450251984713	0.001
14	357387	75.500251984713	0.002
14	357388	75.550251984713	0.001
14	357389	75.600251984713	0.002
14	357390	75.650251984713	0.001
14	357391	75.700251984713	0.002
14	357392	75.750251984713	0.001
14	357393	75.800251984713	0.002
14	357394	75.850251984713	0.001
14	357395	75.900251984713	0.002
14	357396	75.950251984713	0.001
