version 2
run VoIP-20ms_200B-1-20160923-14:07:44-14546
attr configname VoIP-20ms_200B
attr datetime 20160923-14:07:44
attr experiment VoIP-20ms_200B
attr inifile omnetpp.ini
attr iterationvars ""
attr iterationvars2 $repetition=1
attr measurement ""
attr network SymScenerio
attr processid 14546
attr repetition 1
attr replication #1
attr resultdir results
attr runnumber 1
attr seedset 1
param **.coreDebug false
param **.debug false
param *.**.nic.mac1609_4.bitrate 18Mbps
param *.**.nic.mac1609_4.txPower 20mW
param *.**.nic.mac1609_4.useServiceChannel true
param *.**.nic.phy80211p.analogueModels "xmldoc(\"config.xml\")"
param *.**.nic.phy80211p.decider "xmldoc(\"config.xml\")"
param *.**.nic.phy80211p.sensitivity -89dBm
param *.**.nic.phy80211p.thermalNoise -110dBm
param *.**.nic.phy80211p.usePropagationDelay true
param *.**.nic.phy80211p.useThermalNoise true
param *.annotations.draw false
param *.connectionManager.alpha 2.0
param *.connectionManager.carrierFrequency "5.890e9 Hz"
param *.connectionManager.pMax 20mW
param *.connectionManager.sat -89dBm
param *.connectionManager.sendDirect true
param *.manager.autoShutdown true
param *.manager.host "\"localhost\""
param *.manager.launchConfig "xmldoc(\"map.launchd.xml\")"
param *.manager.margin 25
param *.manager.moduleDisplayString "\"\""
param *.manager.moduleName "\"node\""
param *.manager.moduleType "\"symulacja.veins.nodes.Car\""
param *.manager.port 9999
param *.manager.updateInterval 0.1s
param *.node[*].appl.beaconInterval 1s
param *.node[*].appl.beaconPriority 3
param *.node[*].appl.dataOnSch false
param *.node[*].appl.dataPriority 2
param *.node[*].appl.debug false
param *.node[*].appl.maxOffset 0.005s
param *.node[*].appl.sendBeacons false
param *.node[*].appl.sendData true
param *.node[*].appl.sendVoIP true
param *.node[*].appl.voipInterval 0.020s
param *.node[*].appl.voipLengthBits 1600bit
param *.node[*].appl.voipOnSch true
param *.node[*].appl.voipPriority 3
param *.node[*].applType "\"Sym11p\""
param *.node[*].veinsmobility.x 0
param *.node[*].veinsmobility.y 0
param *.node[*].veinsmobility.z 1.895
param *.node[*].veinsmobilityType "\"symulacja.veins.modules.mobility.traci.TraCIMobility\""
param *.playgroundSizeX 9000m
param *.playgroundSizeY 9000m
param *.playgroundSizeZ 50m
param *.rsu[*].appl.beaconInterval 1s
param *.rsu[*].appl.beaconPriority 3
param *.rsu[*].appl.dataOnSch false
param *.rsu[*].appl.dataPriority 2
param *.rsu[*].appl.debug false
param *.rsu[*].appl.headerLength "256 bit"
param *.rsu[*].appl.maxOffset 0.005s
param *.rsu[*].appl.sendBeacons false
param *.rsu[*].appl.sendData false
param *.rsu[*].appl.sendVoIP false
param *.rsu[*].applType "\"SymRSU11p\""
param *.rsu[0].mobility.x 2160
param *.rsu[0].mobility.y 3100
param *.rsu[0].mobility.z 3
param *.world.use2D false
param *.world.useTorus false

vector 14  SymScenerio.rsu[0].nic.mac1609_4  "Interwały kanałów"  ETV
vector 23  SymScenerio.node[0].veinsmobility  posx  ETV
vector 24  SymScenerio.node[0].veinsmobility  posy  ETV
vector 22  SymScenerio.node[0].nic.mac1609_4  "Interwały kanałów"  ETV
vector 25  SymScenerio.node[0].veinsmobility  speed  ETV
vector 15  SymScenerio.node[0].appl  "TX Packets"  ETV
vector 16  SymScenerio.node[0].appl  "TX Total"  ETV
vector 17  SymScenerio.node[0].appl  Pakietyzacja  ETV
vector 5  SymScenerio.rsu[0].appl  nodeALL:vector  ETV
attr source  nodeALL
attr title  "Opoznienia ALL, vector"
vector 9  SymScenerio.rsu[0].appl  "RX Packet"  ETV
vector 0  SymScenerio.rsu[0].appl  node0:vector  ETV
attr source  node0
attr title  "Opoznienia node0, vector"
vector 26  SymScenerio.node[0].veinsmobility  acceleration  ETV
vector 27  SymScenerio.node[0].veinsmobility  co2emission  ETV
vector 36  SymScenerio.node[1].veinsmobility  posx  ETV
vector 37  SymScenerio.node[1].veinsmobility  posy  ETV
vector 35  SymScenerio.node[1].nic.mac1609_4  "Interwały kanałów"  ETV
vector 38  SymScenerio.node[1].veinsmobility  speed  ETV
vector 39  SymScenerio.node[1].veinsmobility  acceleration  ETV
vector 40  SymScenerio.node[1].veinsmobility  co2emission  ETV
vector 28  SymScenerio.node[1].appl  "TX Packets"  ETV
vector 29  SymScenerio.node[1].appl  "TX Total"  ETV
vector 30  SymScenerio.node[1].appl  Pakietyzacja  ETV
vector 1  SymScenerio.rsu[0].appl  node1:vector  ETV
attr source  node1
attr title  "Opoznienia node1, vector"
vector 49  SymScenerio.node[2].veinsmobility  posx  ETV
vector 50  SymScenerio.node[2].veinsmobility  posy  ETV
vector 48  SymScenerio.node[2].nic.mac1609_4  "Interwały kanałów"  ETV
vector 51  SymScenerio.node[2].veinsmobility  speed  ETV
vector 52  SymScenerio.node[2].veinsmobility  acceleration  ETV
vector 53  SymScenerio.node[2].veinsmobility  co2emission  ETV
vector 41  SymScenerio.node[2].appl  "TX Packets"  ETV
vector 42  SymScenerio.node[2].appl  "TX Total"  ETV
vector 43  SymScenerio.node[2].appl  Pakietyzacja  ETV
vector 2  SymScenerio.rsu[0].appl  node2:vector  ETV
attr source  node2
attr title  "Opoznienia node2, vector"
vector 62  SymScenerio.node[3].veinsmobility  posx  ETV
vector 63  SymScenerio.node[3].veinsmobility  posy  ETV
vector 61  SymScenerio.node[3].nic.mac1609_4  "Interwały kanałów"  ETV
vector 64  SymScenerio.node[3].veinsmobility  speed  ETV
vector 65  SymScenerio.node[3].veinsmobility  acceleration  ETV
vector 66  SymScenerio.node[3].veinsmobility  co2emission  ETV
vector 54  SymScenerio.node[3].appl  "TX Packets"  ETV
vector 55  SymScenerio.node[3].appl  "TX Total"  ETV
vector 56  SymScenerio.node[3].appl  Pakietyzacja  ETV
vector 3  SymScenerio.rsu[0].appl  node3:vector  ETV
attr source  node3
attr title  "Opoznienia node3, vector"
vector 75  SymScenerio.node[4].veinsmobility  posx  ETV
vector 76  SymScenerio.node[4].veinsmobility  posy  ETV
vector 74  SymScenerio.node[4].nic.mac1609_4  "Interwały kanałów"  ETV
vector 77  SymScenerio.node[4].veinsmobility  speed  ETV
vector 78  SymScenerio.node[4].veinsmobility  acceleration  ETV
vector 79  SymScenerio.node[4].veinsmobility  co2emission  ETV
vector 67  SymScenerio.node[4].appl  "TX Packets"  ETV
vector 68  SymScenerio.node[4].appl  "TX Total"  ETV
vector 69  SymScenerio.node[4].appl  Pakietyzacja  ETV
vector 4  SymScenerio.rsu[0].appl  node4:vector  ETV
attr source  node4
attr title  "Opoznienia node4, vector"
17	10	0.243377946275	1.002
17	27	0.263377946275	1.002
17	42	0.283377946275	1.002
17	60	0.303377946275	1.002
17	62	0.323377946275	1.002
17	64	0.343377946275	1.002
17	107	0.363377946275	1.002
17	122	0.383377946275	1.002
17	140	0.403377946275	1.002
17	142	0.423377946275	1.002
17	144	0.443377946275	1.002
17	187	0.463377946275	1.002
17	202	0.483377946275	1.002
17	220	0.503377946275	1.002
17	222	0.523377946275	1.002
17	224	0.543377946275	1.002
17	267	0.563377946275	1.002
17	282	0.583377946275	1.002
17	300	0.603377946275	1.002
17	302	0.623377946275	1.002
17	304	0.643377946275	1.002
17	347	0.663377946275	1.002
17	362	0.683377946275	1.002
17	380	0.703377946275	1.002
17	382	0.723377946275	1.002
17	384	0.743377946275	1.002
17	427	0.763377946275	1.002
17	442	0.783377946275	1.002
17	460	0.803377946275	1.002
17	462	0.823377946275	1.002
17	464	0.843377946275	1.002
17	507	0.863377946275	1.002
17	522	0.883377946275	1.002
17	540	0.903377946275	1.002
17	542	0.923377946275	1.002
17	544	0.943377946275	1.002
17	587	0.963377946275	1.002
17	602	0.983377946275	1.002
17	620	1.003377946275	1.002
17	622	1.023377946275	1.002
17	624	1.043377946275	1.002
17	667	1.063377946275	1.002
17	682	1.083377946275	1.002
17	700	1.103377946275	1.002
17	702	1.123377946275	1.002
17	704	1.143377946275	1.002
17	747	1.163377946275	1.002
17	762	1.183377946275	1.002
17	780	1.203377946275	1.002
17	782	1.223377946275	1.002
17	784	1.243377946275	1.002
17	827	1.263377946275	1.002
17	842	1.283377946275	1.002
17	860	1.303377946275	1.002
17	862	1.323377946275	1.002
17	864	1.343377946275	1.002
17	907	1.363377946275	1.002
17	922	1.383377946275	1.002
17	940	1.403377946275	1.002
17	942	1.423377946275	1.002
17	944	1.443377946275	1.002
17	987	1.463377946275	1.002
17	1002	1.483377946275	1.002
17	1020	1.503377946275	1.002
17	1022	1.523377946275	1.002
17	1024	1.543377946275	1.002
17	1067	1.563377946275	1.002
17	1082	1.583377946275	1.002
17	1100	1.603377946275	1.002
17	1102	1.623377946275	1.002
17	1104	1.643377946275	1.002
17	1147	1.663377946275	1.002
17	1162	1.683377946275	1.002
17	1180	1.703377946275	1.002
17	1182	1.723377946275	1.002
17	1184	1.743377946275	1.002
17	1227	1.763377946275	1.002
17	1242	1.783377946275	1.002
17	1260	1.803377946275	1.002
17	1262	1.823377946275	1.002
17	1264	1.843377946275	1.002
17	1307	1.863377946275	1.002
17	1322	1.883377946275	1.002
17	1340	1.903377946275	1.002
17	1342	1.923377946275	1.002
17	1344	1.943377946275	1.002
17	1387	1.963377946275	1.002
17	1402	1.983377946275	1.002
17	1420	2.003377946275	1.002
17	1422	2.023377946275	1.002
17	1424	2.043377946275	1.002
17	1467	2.063377946275	1.002
17	1482	2.083377946275	1.002
17	1500	2.103377946275	1.002
17	1502	2.123377946275	1.002
17	1504	2.143377946275	1.002
17	1547	2.163377946275	1.002
17	1562	2.183377946275	1.002
17	1580	2.203377946275	1.002
17	1582	2.223377946275	1.002
17	1584	2.243377946275	1.002
17	1627	2.263377946275	1.002
17	1642	2.283377946275	1.002
17	1660	2.303377946275	1.002
17	1662	2.323377946275	1.002
17	1664	2.343377946275	1.002
17	1707	2.363377946275	1.002
17	1722	2.383377946275	1.002
17	1740	2.403377946275	1.002
17	1742	2.423377946275	1.002
17	1744	2.443377946275	1.002
17	1787	2.463377946275	1.002
17	1802	2.483377946275	1.002
17	1820	2.503377946275	1.002
17	1822	2.523377946275	1.002
17	1824	2.543377946275	1.002
17	1867	2.563377946275	1.002
17	1882	2.583377946275	1.002
17	1900	2.603377946275	1.002
17	1902	2.623377946275	1.002
17	1904	2.643377946275	1.002
17	1947	2.663377946275	1.002
17	1962	2.683377946275	1.002
17	1980	2.703377946275	1.002
17	1982	2.723377946275	1.002
17	1984	2.743377946275	1.002
17	2027	2.763377946275	1.002
17	2042	2.783377946275	1.002
17	2060	2.803377946275	1.002
17	2062	2.823377946275	1.002
17	2064	2.843377946275	1.002
17	2107	2.863377946275	1.002
17	2122	2.883377946275	1.002
17	2140	2.903377946275	1.002
17	2142	2.923377946275	1.002
17	2144	2.943377946275	1.002
17	2187	2.963377946275	1.002
17	2202	2.983377946275	1.002
17	2220	3.003377946275	1.002
17	2222	3.023377946275	1.002
17	2224	3.043377946275	1.002
17	2267	3.063377946275	1.002
17	2282	3.083377946275	1.002
17	2300	3.103377946275	1.002
17	2302	3.123377946275	1.002
17	2304	3.143377946275	1.002
17	2366	3.163377946275	1.002
17	2387	3.183377946275	1.002
17	2412	3.203377946275	1.002
17	2414	3.223377946275	1.002
17	2416	3.243377946275	1.002
17	2478	3.263377946275	1.002
17	2499	3.283377946275	1.002
17	2524	3.303377946275	1.002
17	2526	3.323377946275	1.002
17	2528	3.343377946275	1.002
17	2590	3.363377946275	1.002
17	2611	3.383377946275	1.002
17	2636	3.403377946275	1.002
17	2638	3.423377946275	1.002
17	2640	3.443377946275	1.002
17	2702	3.463377946275	1.002
17	2723	3.483377946275	1.002
17	2748	3.503377946275	1.002
17	2750	3.523377946275	1.002
17	2752	3.543377946275	1.002
17	2814	3.563377946275	1.002
17	2835	3.583377946275	1.002
17	2860	3.603377946275	1.002
17	2862	3.623377946275	1.002
17	2864	3.643377946275	1.002
17	2926	3.663377946275	1.002
17	2968	3.683377946275	1.002
17	3014	3.703377946275	1.002
17	3018	3.723377946275	1.002
17	3022	3.743377946275	1.002
17	3143	3.763377946275	1.002
17	3185	3.783377946275	1.002
17	3231	3.803377946275	1.002
17	3235	3.823377946275	1.002
17	3239	3.843377946275	1.002
17	3346	3.863377946275	1.002
17	3388	3.883377946275	1.002
17	3434	3.903377946275	1.002
17	3438	3.923377946275	1.002
17	3442	3.943377946275	1.002
17	3556	3.963377946275	1.002
17	3598	3.983377946275	1.002
17	3644	4.003377946275	1.002
17	3648	4.023377946275	1.002
17	3652	4.043377946275	1.002
17	3773	4.063377946275	1.002
17	3815	4.083377946275	1.002
17	3861	4.103377946275	1.002
17	3865	4.123377946275	1.002
17	3869	4.143377946275	1.002
17	3990	4.163377946275	1.002
17	4032	4.183377946275	1.002
17	4078	4.203377946275	1.002
17	4082	4.223377946275	1.002
17	4086	4.243377946275	1.002
17	4193	4.263377946275	1.002
17	4235	4.283377946275	1.002
17	4281	4.303377946275	1.002
17	4285	4.323377946275	1.002
17	4289	4.343377946275	1.002
17	4403	4.363377946275	1.002
17	4445	4.383377946275	1.002
17	4491	4.403377946275	1.002
17	4495	4.423377946275	1.002
17	4499	4.443377946275	1.002
17	4613	4.463377946275	1.002
17	4655	4.483377946275	1.002
17	4701	4.503377946275	1.002
17	4705	4.523377946275	1.002
17	4709	4.543377946275	1.002
17	4823	4.563377946275	1.002
17	4865	4.583377946275	1.002
17	4911	4.603377946275	1.002
17	4915	4.623377946275	1.002
17	4919	4.643377946275	1.002
17	5033	4.663377946275	1.002
17	5075	4.683377946275	1.002
17	5121	4.703377946275	1.002
17	5125	4.723377946275	1.002
17	5129	4.743377946275	1.002
17	5243	4.763377946275	1.002
17	5285	4.783377946275	1.002
17	5331	4.803377946275	1.002
17	5335	4.823377946275	1.002
17	5339	4.843377946275	1.002
17	5453	4.863377946275	1.002
17	5495	4.883377946275	1.002
17	5541	4.903377946275	1.002
17	5545	4.923377946275	1.002
17	5549	4.943377946275	1.002
17	5670	4.963377946275	1.002
17	5712	4.983377946275	1.002
17	5758	5.003377946275	1.002
17	5762	5.023377946275	1.002
17	5766	5.043377946275	1.002
17	5873	5.063377946275	1.002
17	5915	5.083377946275	1.002
17	5961	5.103377946275	1.002
17	5965	5.123377946275	1.002
17	5969	5.143377946275	1.002
17	6090	5.163377946275	1.002
17	6132	5.183377946275	1.002
17	6178	5.203377946275	1.002
17	6182	5.223377946275	1.002
17	6186	5.243377946275	1.002
17	6307	5.263377946275	1.002
17	6349	5.283377946275	1.002
17	6395	5.303377946275	1.002
17	6399	5.323377946275	1.002
17	6403	5.343377946275	1.002
17	6517	5.363377946275	1.002
17	6559	5.383377946275	1.002
17	6605	5.403377946275	1.002
17	6609	5.423377946275	1.002
17	6613	5.443377946275	1.002
17	6727	5.463377946275	1.002
17	6769	5.483377946275	1.002
17	6815	5.503377946275	1.002
17	6819	5.523377946275	1.002
17	6823	5.543377946275	1.002
17	6937	5.563377946275	1.002
17	6979	5.583377946275	1.002
17	7025	5.603377946275	1.002
17	7029	5.623377946275	1.002
17	7033	5.643377946275	1.002
17	7154	5.663377946275	1.002
17	7196	5.683377946275	1.002
17	7242	5.703377946275	1.002
17	7246	5.723377946275	1.002
17	7250	5.743377946275	1.002
17	7371	5.763377946275	1.002
17	7413	5.783377946275	1.002
17	7459	5.803377946275	1.002
17	7463	5.823377946275	1.002
17	7467	5.843377946275	1.002
17	7588	5.863377946275	1.002
17	7630	5.883377946275	1.002
17	7676	5.903377946275	1.002
17	7680	5.923377946275	1.002
17	7684	5.943377946275	1.002
17	7805	5.963377946275	1.002
17	7847	5.983377946275	1.002
17	7893	6.003377946275	1.002
17	7897	6.023377946275	1.002
17	7901	6.043377946275	1.002
17	8022	6.063377946275	1.002
17	8064	6.083377946275	1.002
17	8110	6.103377946275	1.002
17	8114	6.123377946275	1.002
17	8118	6.143377946275	1.002
17	8266	6.163377946275	1.002
17	8320	6.183377946275	1.002
17	8379	6.203377946275	1.002
17	8383	6.223377946275	1.002
17	8387	6.243377946275	1.002
17	8545	6.263377946275	1.002
17	8599	6.283377946275	1.002
17	8658	6.303377946275	1.002
17	8662	6.323377946275	1.002
17	8666	6.343377946275	1.002
17	8824	6.363377946275	1.002
17	8878	6.383377946275	1.002
17	8937	6.403377946275	1.002
17	8941	6.423377946275	1.002
17	8945	6.443377946275	1.002
17	9120	6.463377946275	1.002
17	9201	6.483377946275	1.002
17	9262	6.503377946275	1.002
17	9268	6.523377946275	1.002
17	9274	6.543377946275	1.002
17	9507	6.563377946275	1.002
17	9588	6.583377946275	1.002
17	9649	6.603377946275	1.002
17	9655	6.623377946275	1.002
17	9661	6.643377946275	1.002
17	9901	6.663377946275	1.002
17	9982	6.683377946275	1.002
17	10043	6.703377946275	1.002
17	10049	6.723377946275	1.002
17	10055	6.743377946275	1.002
17	10305	6.763377946275	1.002
17	10386	6.783377946275	1.002
17	10447	6.803377946275	1.002
17	10453	6.823377946275	1.002
17	10459	6.843377946275	1.002
17	10689	6.863377946275	1.002
17	10770	6.883377946275	1.002
17	10831	6.903377946275	1.002
17	10837	6.923377946275	1.002
17	10843	6.943377946275	1.002
17	11083	6.963377946275	1.002
17	11164	6.983377946275	1.002
17	11225	7.003377946275	1.002
17	11231	7.023377946275	1.002
17	11237	7.043377946275	1.002
17	11487	7.063377946275	1.002
17	11568	7.083377946275	1.002
17	11629	7.103377946275	1.002
17	11635	7.123377946275	1.002
17	11641	7.143377946275	1.002
17	11881	7.163377946275	1.002
17	11962	7.183377946275	1.002
17	12023	7.203377946275	1.002
17	12029	7.223377946275	1.002
17	12035	7.243377946275	1.002
17	12275	7.263377946275	1.002
17	12356	7.283377946275	1.002
17	12417	7.303377946275	1.002
17	12423	7.323377946275	1.002
17	12429	7.343377946275	1.002
17	12679	7.363377946275	1.002
17	12760	7.383377946275	1.002
17	12821	7.403377946275	1.002
17	12827	7.423377946275	1.002
17	12833	7.443377946275	1.002
17	13066	7.463377946275	1.002
17	13147	7.483377946275	1.002
17	13208	7.503377946275	1.002
17	13214	7.523377946275	1.002
17	13220	7.543377946275	1.002
17	13470	7.563377946275	1.002
17	13551	7.583377946275	1.002
17	13612	7.603377946275	1.002
17	13618	7.623377946275	1.002
17	13624	7.643377946275	1.002
17	13874	7.663377946275	1.002
17	13955	7.683377946275	1.002
17	14016	7.703377946275	1.002
17	14022	7.723377946275	1.002
17	14028	7.743377946275	1.002
17	14268	7.763377946275	1.002
17	14349	7.783377946275	1.002
17	14410	7.803377946275	1.002
17	14416	7.823377946275	1.002
17	14422	7.843377946275	1.002
17	14665	7.863377946275	1.002
17	14746	7.883377946275	1.002
17	14807	7.903377946275	1.002
17	14813	7.923377946275	1.002
17	14819	7.943377946275	1.002
17	15059	7.963377946275	1.002
17	15140	7.983377946275	1.002
17	15201	8.003377946275	1.002
17	15207	8.023377946275	1.002
17	15213	8.043377946275	1.002
17	15443	8.063377946275	1.002
17	15524	8.083377946275	1.002
17	15585	8.103377946275	1.002
17	15591	8.123377946275	1.002
17	15597	8.143377946275	1.002
17	15827	8.163377946275	1.002
17	15908	8.183377946275	1.002
17	15969	8.203377946275	1.002
17	15975	8.223377946275	1.002
17	15981	8.243377946275	1.002
17	16204	8.263377946275	1.002
17	16285	8.283377946275	1.002
17	16346	8.303377946275	1.002
17	16352	8.323377946275	1.002
17	16358	8.343377946275	1.002
17	16591	8.363377946275	1.002
17	16672	8.383377946275	1.002
17	16733	8.403377946275	1.002
17	16739	8.423377946275	1.002
17	16745	8.443377946275	1.002
17	16985	8.463377946275	1.002
17	17066	8.483377946275	1.002
17	17127	8.503377946275	1.002
17	17133	8.523377946275	1.002
17	17139	8.543377946275	1.002
17	17389	8.563377946275	1.002
17	17470	8.583377946275	1.002
17	17531	8.603377946275	1.002
17	17537	8.623377946275	1.002
17	17543	8.643377946275	1.002
17	17776	8.663377946275	1.002
17	17857	8.683377946275	1.002
17	17918	8.703377946275	1.002
17	17924	8.723377946275	1.002
17	17930	8.743377946275	1.002
17	18180	8.763377946275	1.002
17	18261	8.783377946275	1.002
17	18322	8.803377946275	1.002
17	18328	8.823377946275	1.002
17	18334	8.843377946275	1.002
17	18564	8.863377946275	1.002
17	18645	8.883377946275	1.002
17	18706	8.903377946275	1.002
17	18712	8.923377946275	1.002
17	18718	8.943377946275	1.002
17	18958	8.963377946275	1.002
17	19039	8.983377946275	1.002
17	19100	9.003377946275	1.002
17	19106	9.023377946275	1.002
17	19112	9.043377946275	1.002
17	19355	9.063377946275	1.002
17	19436	9.083377946275	1.002
17	19497	9.103377946275	1.002
17	19503	9.123377946275	1.002
17	19509	9.143377946275	1.002
17	19795	9.163377946275	1.002
17	19894	9.183377946275	1.002
17	19968	9.203377946275	1.002
17	19974	9.223377946275	1.002
17	19980	9.243377946275	1.002
17	20288	9.263377946275	1.002
17	20387	9.283377946275	1.002
17	20461	9.303377946275	1.002
17	20467	9.323377946275	1.002
17	20473	9.343377946275	1.002
17	20768	9.363377946275	1.002
17	20867	9.383377946275	1.002
17	20941	9.403377946275	1.002
17	20947	9.423377946275	1.002
17	20953	9.443377946275	1.002
17	21262	9.463377946275	1.002
17	21361	9.483377946275	1.002
17	21435	9.503377946275	1.002
17	21441	9.523377946275	1.002
17	21447	9.543377946275	1.002
17	21733	9.563377946275	1.002
17	21832	9.583377946275	1.002
17	21906	9.603377946275	1.002
17	21912	9.623377946275	1.002
17	21920	9.643377946275	1.002
17	22283	9.663377946275	1.002
17	22415	9.683377946275	1.002
17	22522	9.703377946275	1.002
17	22530	9.723377946275	1.002
17	22538	9.743377946275	1.002
17	22906	9.763377946275	1.002
17	23038	9.783377946275	1.002
17	23145	9.803377946275	1.002
17	23153	9.823377946275	1.002
17	23161	9.843377946275	1.002
17	23555	9.863377946275	1.002
17	23687	9.883377946275	1.002
17	23794	9.903377946275	1.002
17	23802	9.923377946275	1.002
17	23810	9.943377946275	1.002
17	24174	9.963377946275	1.002
17	24306	9.983377946275	1.002
17	24413	10.003377946275	1.002
17	24421	10.023377946275	1.002
17	24429	10.043377946275	1.002
17	24807	10.063377946275	1.002
17	24939	10.083377946275	1.002
17	25046	10.103377946275	1.002
17	25054	10.123377946275	1.002
17	25062	10.143377946275	1.002
17	25430	10.163377946275	1.002
17	25562	10.183377946275	1.002
17	25669	10.203377946275	1.002
17	25677	10.223377946275	1.002
17	25685	10.243377946275	1.002
17	26057	10.263377946275	1.002
17	26189	10.283377946275	1.002
17	26296	10.303377946275	1.002
17	26304	10.323377946275	1.002
17	26312	10.343377946275	1.002
17	26680	10.363377946275	1.002
17	26812	10.383377946275	1.002
17	26919	10.403377946275	1.002
17	26927	10.423377946275	1.002
17	26935	10.443377946275	1.002
17	27312	10.463377946275	1.002
17	27444	10.483377946275	1.002
17	27551	10.503377946275	1.002
17	27559	10.523377946275	1.002
17	27567	10.543377946275	1.002
17	27944	10.563377946275	1.002
17	28076	10.583377946275	1.002
17	28183	10.603377946275	1.002
17	28191	10.623377946275	1.002
17	28199	10.643377946275	1.002
17	28554	10.663377946275	1.002
17	28686	10.683377946275	1.002
17	28793	10.703377946275	1.002
17	28801	10.723377946275	1.002
17	28809	10.743377946275	1.002
17	29177	10.763377946275	1.002
17	29309	10.783377946275	1.002
17	29416	10.803377946275	1.002
17	29424	10.823377946275	1.002
17	29432	10.843377946275	1.002
17	29800	10.863377946275	1.002
17	29932	10.883377946275	1.002
17	30039	10.903377946275	1.002
17	30047	10.923377946275	1.002
17	30055	10.943377946275	1.002
17	30414	10.963377946275	1.002
17	30546	10.983377946275	1.002
17	30653	11.003377946275	1.002
17	30661	11.023377946275	1.002
17	30669	11.043377946275	1.002
17	31024	11.063377946275	1.002
17	31156	11.083377946275	1.002
17	31263	11.103377946275	1.002
17	31271	11.123377946275	1.002
17	31279	11.143377946275	1.002
17	31643	11.163377946275	1.002
17	31775	11.183377946275	1.002
17	31882	11.203377946275	1.002
17	31890	11.223377946275	1.002
17	31898	11.243377946275	1.002
17	32262	11.263377946275	1.002
17	32394	11.283377946275	1.002
17	32501	11.303377946275	1.002
17	32509	11.323377946275	1.002
17	32517	11.343377946275	1.002
17	32872	11.363377946275	1.002
17	33004	11.383377946275	1.002
17	33111	11.403377946275	1.002
17	33119	11.423377946275	1.002
17	33127	11.443377946275	1.002
17	33508	11.463377946275	1.002
17	33640	11.483377946275	1.002
17	33747	11.503377946275	1.002
17	33755	11.523377946275	1.002
17	33763	11.543377946275	1.002
17	34131	11.563377946275	1.002
17	34263	11.583377946275	1.002
17	34370	11.603377946275	1.002
17	34378	11.623377946275	1.002
17	34386	11.643377946275	1.002
17	34763	11.663377946275	1.002
17	34895	11.683377946275	1.002
17	35002	11.703377946275	1.002
17	35010	11.723377946275	1.002
17	35018	11.743377946275	1.002
17	35377	11.763377946275	1.002
17	35509	11.783377946275	1.002
17	35616	11.803377946275	1.002
17	35624	11.823377946275	1.002
17	35632	11.843377946275	1.002
17	36000	11.863377946275	1.002
17	36132	11.883377946275	1.002
17	36239	11.903377946275	1.002
17	36247	11.923377946275	1.002
17	36255	11.943377946275	1.002
17	36619	11.963377946275	1.002
17	36751	11.983377946275	1.002
17	36858	12.003377946275	1.002
17	36866	12.023377946275	1.002
17	36874	12.043377946275	1.002
17	37255	12.063377946275	1.002
17	37387	12.083377946275	1.002
17	37494	12.103377946275	1.002
17	37502	12.123377946275	1.002
17	37510	12.143377946275	1.002
17	37935	12.163377946275	1.002
17	38091	12.183377946275	1.002
17	38217	12.203377946275	1.002
17	38225	12.223377946275	1.002
17	38233	12.243377946275	1.002
17	38670	12.263377946275	1.002
17	38826	12.283377946275	1.002
17	38952	12.303377946275	1.002
17	38960	12.323377946275	1.002
17	38968	12.343377946275	1.002
17	39378	12.363377946275	1.002
17	39534	12.383377946275	1.002
17	39660	12.403377946275	1.002
17	39668	12.423377946275	1.002
17	39676	12.443377946275	1.002
17	40096	12.463377946275	1.002
17	40252	12.483377946275	1.002
17	40378	12.503377946275	1.002
17	40386	12.523377946275	1.002
17	40394	12.543377946275	1.002
17	40848	12.563377946275	1.002
17	41043	12.583377946275	1.002
17	41208	12.603377946275	1.002
17	41218	12.623377946275	1.002
17	41228	12.643377946275	1.002
17	41740	12.663377946275	1.002
17	41935	12.683377946275	1.002
17	42100	12.703377946275	1.002
17	42110	12.723377946275	1.002
17	42120	12.743377946275	1.002
17	42621	12.763377946275	1.002
17	42816	12.783377946275	1.002
17	42981	12.803377946275	1.002
17	42991	12.823377946275	1.002
17	43001	12.843377946275	1.002
17	43524	12.863377946275	1.002
17	43719	12.883377946275	1.002
17	43884	12.903377946275	1.002
17	43894	12.923377946275	1.002
17	43904	12.943377946275	1.002
17	44449	12.963377946275	1.002
17	44644	12.983377946275	1.002
17	44809	13.003377946275	1.002
17	44819	13.023377946275	1.002
17	44829	13.043377946275	1.002
17	45367	13.063377946275	1.002
17	45562	13.083377946275	1.002
17	45727	13.103377946275	1.002
17	45737	13.123377946275	1.002
17	45747	13.143377946275	1.002
17	46281	13.163377946275	1.002
17	46476	13.183377946275	1.002
17	46641	13.203377946275	1.002
17	46651	13.223377946275	1.002
17	46661	13.243377946275	1.002
17	47157	13.263377946275	1.002
17	47352	13.283377946275	1.002
17	47517	13.303377946275	1.002
17	47527	13.323377946275	1.002
17	47537	13.343377946275	1.002
17	48064	13.363377946275	1.002
17	48259	13.383377946275	1.002
17	48424	13.403377946275	1.002
17	48434	13.423377946275	1.002
17	48444	13.443377946275	1.002
17	48940	13.463377946275	1.002
17	49135	13.483377946275	1.002
17	49300	13.503377946275	1.002
17	49310	13.523377946275	1.002
17	49320	13.543377946275	1.002
17	49831	13.563377946275	1.002
17	50026	13.583377946275	1.002
17	50191	13.603377946275	1.002
17	50201	13.623377946275	1.002
17	50211	13.643377946275	1.002
17	50717	13.663377946275	1.002
17	50912	13.683377946275	1.002
17	51077	13.703377946275	1.002
17	51087	13.723377946275	1.002
17	51097	13.743377946275	1.002
17	51608	13.763377946275	1.002
17	51803	13.783377946275	1.002
17	51968	13.803377946275	1.002
17	51978	13.823377946275	1.002
17	51988	13.843377946275	1.002
17	52510	13.863377946275	1.002
17	52705	13.883377946275	1.002
17	52870	13.903377946275	1.002
17	52880	13.923377946275	1.002
17	52890	13.943377946275	1.002
17	53401	13.963377946275	1.002
17	53596	13.983377946275	1.002
17	53761	14.003377946275	1.002
17	53771	14.023377946275	1.002
17	53781	14.043377946275	1.002
17	54308	14.063377946275	1.002
17	54503	14.083377946275	1.002
17	54668	14.103377946275	1.002
17	54678	14.123377946275	1.002
17	54688	14.143377946275	1.002
17	55211	14.163377946275	1.002
17	55406	14.183377946275	1.002
17	55571	14.203377946275	1.002
17	55581	14.223377946275	1.002
17	55591	14.243377946275	1.002
17	56092	14.263377946275	1.002
17	56287	14.283377946275	1.002
17	56452	14.303377946275	1.002
17	56462	14.323377946275	1.002
17	56472	14.343377946275	1.002
17	57022	14.363377946275	1.002
17	57217	14.383377946275	1.002
17	57382	14.403377946275	1.002
17	57392	14.423377946275	1.002
17	57402	14.443377946275	1.002
17	57935	14.463377946275	1.002
17	58130	14.483377946275	1.002
17	58295	14.503377946275	1.002
17	58305	14.523377946275	1.002
17	58315	14.543377946275	1.002
17	58858	14.563377946275	1.002
17	59053	14.583377946275	1.002
17	59218	14.603377946275	1.002
17	59228	14.623377946275	1.002
17	59238	14.643377946275	1.002
17	59749	14.663377946275	1.002
17	59944	14.683377946275	1.002
17	60109	14.703377946275	1.002
17	60119	14.723377946275	1.002
17	60129	14.743377946275	1.002
17	60646	14.763377946275	1.002
17	60841	14.783377946275	1.002
17	61006	14.803377946275	1.002
17	61016	14.823377946275	1.002
17	61026	14.843377946275	1.002
17	61543	14.863377946275	1.002
17	61738	14.883377946275	1.002
17	61903	14.903377946275	1.002
17	61913	14.923377946275	1.002
17	61923	14.943377946275	1.002
17	62472	14.963377946275	1.002
17	62667	14.983377946275	1.002
17	62832	15.003377946275	1.002
17	62842	15.023377946275	1.002
17	62852	15.043377946275	1.002
17	63374	15.063377946275	1.002
17	63569	15.083377946275	1.002
17	63734	15.103377946275	1.002
17	63744	15.123377946275	1.002
17	63754	15.143377946275	1.002
17	64281	15.163377946275	1.002
17	64476	15.183377946275	1.002
17	64641	15.203377946275	1.002
17	64651	15.223377946275	1.002
17	64661	15.243377946275	1.002
17	65183	15.263377946275	1.002
17	65378	15.283377946275	1.002
17	65543	15.303377946275	1.002
17	65553	15.323377946275	1.002
17	65563	15.343377946275	1.002
17	66069	15.363377946275	1.002
17	66264	15.383377946275	1.002
17	66429	15.403377946275	1.002
17	66439	15.423377946275	1.002
17	66449	15.443377946275	1.002
17	66955	15.463377946275	1.002
17	67150	15.483377946275	1.002
17	67315	15.503377946275	1.002
17	67325	15.523377946275	1.002
17	67335	15.543377946275	1.002
17	67841	15.563377946275	1.002
17	68036	15.583377946275	1.002
17	68201	15.603377946275	1.002
17	68211	15.623377946275	1.002
17	68221	15.643377946275	1.002
17	68743	15.663377946275	1.002
17	68938	15.683377946275	1.002
17	69103	15.703377946275	1.002
17	69113	15.723377946275	1.002
17	69123	15.743377946275	1.002
17	69650	15.763377946275	1.002
17	69845	15.783377946275	1.002
17	70010	15.803377946275	1.002
17	70020	15.823377946275	1.002
17	70030	15.843377946275	1.002
17	70520	15.863377946275	1.002
17	70715	15.883377946275	1.002
17	70880	15.903377946275	1.002
17	70890	15.923377946275	1.002
17	70900	15.943377946275	1.002
17	71427	15.963377946275	1.002
17	71622	15.983377946275	1.002
17	71787	16.003377946275	1.002
17	71797	16.023377946275	1.002
17	71807	16.043377946275	1.002
17	72324	16.063377946275	1.002
17	72519	16.083377946275	1.002
17	72684	16.103377946275	1.002
17	72694	16.123377946275	1.002
17	72704	16.143377946275	1.002
17	73232	16.163377946275	1.002
17	73427	16.183377946275	1.002
17	73592	16.203377946275	1.002
17	73602	16.223377946275	1.002
17	73612	16.243377946275	1.002
17	74150	16.263377946275	1.002
17	74345	16.283377946275	1.002
17	74510	16.303377946275	1.002
17	74520	16.323377946275	1.002
17	74530	16.343377946275	1.002
17	75025	16.363377946275	1.002
17	75220	16.383377946275	1.002
17	75385	16.403377946275	1.002
17	75395	16.423377946275	1.002
17	75405	16.443377946275	1.002
17	75943	16.463377946275	1.002
17	76138	16.483377946275	1.002
17	76303	16.503377946275	1.002
17	76313	16.523377946275	1.002
17	76323	16.543377946275	1.002
17	76850	16.563377946275	1.002
17	77045	16.583377946275	1.002
17	77210	16.603377946275	1.002
17	77220	16.623377946275	1.002
17	77230	16.643377946275	1.002
17	77735	16.663377946275	1.002
17	77930	16.683377946275	1.002
17	78095	16.703377946275	1.002
17	78105	16.723377946275	1.002
17	78115	16.743377946275	1.002
17	78616	16.763377946275	1.002
17	78811	16.783377946275	1.002
17	78976	16.803377946275	1.002
17	78986	16.823377946275	1.002
17	78996	16.843377946275	1.002
17	79518	16.863377946275	1.002
17	79713	16.883377946275	1.002
17	79878	16.903377946275	1.002
17	79888	16.923377946275	1.002
17	79898	16.943377946275	1.002
17	80431	16.963377946275	1.002
17	80626	16.983377946275	1.002
17	80791	17.003377946275	1.002
17	80801	17.023377946275	1.002
17	80811	17.043377946275	1.002
17	81317	17.063377946275	1.002
17	81512	17.083377946275	1.002
17	81677	17.103377946275	1.002
17	81687	17.123377946275	1.002
17	81697	17.143377946275	1.002
17	82214	17.163377946275	1.002
17	82409	17.183377946275	1.002
17	82574	17.203377946275	1.002
17	82584	17.223377946275	1.002
17	82594	17.243377946275	1.002
17	83132	17.263377946275	1.002
17	83327	17.283377946275	1.002
17	83492	17.303377946275	1.002
17	83502	17.323377946275	1.002
17	83512	17.343377946275	1.002
17	84050	17.363377946275	1.002
17	84245	17.383377946275	1.002
17	84410	17.403377946275	1.002
17	84420	17.423377946275	1.002
17	84430	17.443377946275	1.002
17	84941	17.463377946275	1.002
17	85136	17.483377946275	1.002
17	85301	17.503377946275	1.002
17	85311	17.523377946275	1.002
17	85321	17.543377946275	1.002
17	85827	17.563377946275	1.002
17	86022	17.583377946275	1.002
17	86187	17.603377946275	1.002
17	86197	17.623377946275	1.002
17	86207	17.643377946275	1.002
17	86713	17.663377946275	1.002
17	86908	17.683377946275	1.002
17	87073	17.703377946275	1.002
17	87083	17.723377946275	1.002
17	87093	17.743377946275	1.002
17	87626	17.763377946275	1.002
17	87821	17.783377946275	1.002
17	87986	17.803377946275	1.002
17	87996	17.823377946275	1.002
17	88006	17.843377946275	1.002
17	88507	17.863377946275	1.002
17	88702	17.883377946275	1.002
17	88867	17.903377946275	1.002
17	88877	17.923377946275	1.002
17	88887	17.943377946275	1.002
17	89409	17.963377946275	1.002
17	89604	17.983377946275	1.002
17	89769	18.003377946275	1.002
17	89779	18.023377946275	1.002
17	89789	18.043377946275	1.002
17	90289	18.063377946275	1.002
17	90484	18.083377946275	1.002
17	90649	18.103377946275	1.002
17	90659	18.123377946275	1.002
17	90669	18.143377946275	1.002
17	91191	18.163377946275	1.002
17	91386	18.183377946275	1.002
17	91551	18.203377946275	1.002
17	91561	18.223377946275	1.002
17	91571	18.243377946275	1.002
17	92131	18.263377946275	1.002
17	92326	18.283377946275	1.002
17	92491	18.303377946275	1.002
17	92501	18.323377946275	1.002
17	92511	18.343377946275	1.002
17	93022	18.363377946275	1.002
17	93217	18.383377946275	1.002
17	93382	18.403377946275	1.002
17	93392	18.423377946275	1.002
17	93402	18.443377946275	1.002
17	93924	18.463377946275	1.002
17	94119	18.483377946275	1.002
17	94284	18.503377946275	1.002
17	94294	18.523377946275	1.002
17	94304	18.543377946275	1.002
17	94837	18.563377946275	1.002
17	95032	18.583377946275	1.002
17	95197	18.603377946275	1.002
17	95207	18.623377946275	1.002
17	95217	18.643377946275	1.002
17	95728	18.663377946275	1.002
17	95923	18.683377946275	1.002
17	96088	18.703377946275	1.002
17	96098	18.723377946275	1.002
17	96108	18.743377946275	1.002
17	96603	18.763377946275	1.002
17	96798	18.783377946275	1.002
17	96963	18.803377946275	1.002
17	96973	18.823377946275	1.002
17	96983	18.843377946275	1.002
17	97489	18.863377946275	1.002
17	97684	18.883377946275	1.002
17	97849	18.903377946275	1.002
17	97859	18.923377946275	1.002
17	97869	18.943377946275	1.002
17	98386	18.963377946275	1.002
17	98581	18.983377946275	1.002
17	98746	19.003377946275	1.002
17	98756	19.023377946275	1.002
17	98766	19.043377946275	1.002
17	99288	19.063377946275	1.002
17	99483	19.083377946275	1.002
17	99648	19.103377946275	1.002
17	99658	19.123377946275	1.002
17	99668	19.143377946275	1.002
17	100185	19.163377946275	1.002
17	100380	19.183377946275	1.002
17	100545	19.203377946275	1.002
17	100555	19.223377946275	1.002
17	100565	19.243377946275	1.002
17	101098	19.263377946275	1.002
17	101293	19.283377946275	1.002
17	101458	19.303377946275	1.002
17	101468	19.323377946275	1.002
17	101478	19.343377946275	1.002
17	102000	19.363377946275	1.002
17	102195	19.383377946275	1.002
17	102360	19.403377946275	1.002
17	102370	19.423377946275	1.002
17	102380	19.443377946275	1.002
17	102880	19.463377946275	1.002
17	103075	19.483377946275	1.002
17	103240	19.503377946275	1.002
17	103250	19.523377946275	1.002
17	103260	19.543377946275	1.002
17	103788	19.563377946275	1.002
17	103983	19.583377946275	1.002
17	104148	19.603377946275	1.002
17	104158	19.623377946275	1.002
17	104168	19.643377946275	1.002
17	104685	19.663377946275	1.002
17	104880	19.683377946275	1.002
17	105045	19.703377946275	1.002
17	105055	19.723377946275	1.002
17	105065	19.743377946275	1.002
17	105582	19.763377946275	1.002
17	105777	19.783377946275	1.002
17	105942	19.803377946275	1.002
17	105952	19.823377946275	1.002
17	105962	19.843377946275	1.002
17	106479	19.863377946275	1.002
17	106674	19.883377946275	1.002
17	106839	19.903377946275	1.002
17	106849	19.923377946275	1.002
17	106859	19.943377946275	1.002
17	107403	19.963377946275	1.002
17	107598	19.983377946275	1.002
17	107763	20.003377946275	1.002
17	107773	20.023377946275	1.002
17	107783	20.043377946275	1.002
17	108305	20.063377946275	1.002
17	108500	20.083377946275	1.002
17	108665	20.103377946275	1.002
17	108675	20.123377946275	1.002
17	108685	20.143377946275	1.002
17	109201	20.163377946275	1.002
17	109396	20.183377946275	1.002
17	109561	20.203377946275	1.002
17	109571	20.223377946275	1.002
17	109581	20.243377946275	1.002
17	110076	20.263377946275	1.002
17	110271	20.283377946275	1.002
17	110436	20.303377946275	1.002
17	110446	20.323377946275	1.002
17	110456	20.343377946275	1.002
17	110973	20.363377946275	1.002
17	111168	20.383377946275	1.002
17	111333	20.403377946275	1.002
17	111343	20.423377946275	1.002
17	111353	20.443377946275	1.002
17	111897	20.463377946275	1.002
17	112092	20.483377946275	1.002
17	112257	20.503377946275	1.002
17	112267	20.523377946275	1.002
17	112277	20.543377946275	1.002
17	112794	20.563377946275	1.002
17	112989	20.583377946275	1.002
17	113154	20.603377946275	1.002
17	113164	20.623377946275	1.002
17	113174	20.643377946275	1.002
17	113702	20.663377946275	1.002
17	113897	20.683377946275	1.002
17	114062	20.703377946275	1.002
17	114072	20.723377946275	1.002
17	114082	20.743377946275	1.002
17	114588	20.763377946275	1.002
17	114783	20.783377946275	1.002
17	114948	20.803377946275	1.002
17	114958	20.823377946275	1.002
17	114968	20.843377946275	1.002
17	115485	20.863377946275	1.002
17	115680	20.883377946275	1.002
17	115845	20.903377946275	1.002
17	115855	20.923377946275	1.002
17	115865	20.943377946275	1.002
17	116387	20.963377946275	1.002
17	116582	20.983377946275	1.002
17	116747	21.003377946275	1.002
17	116757	21.023377946275	1.002
17	116767	21.043377946275	1.002
17	117284	21.063377946275	1.002
17	117479	21.083377946275	1.002
17	117644	21.103377946275	1.002
17	117654	21.123377946275	1.002
17	117664	21.143377946275	1.002
17	118154	21.163377946275	1.002
17	118349	21.183377946275	1.002
17	118514	21.203377946275	1.002
17	118524	21.223377946275	1.002
17	118534	21.243377946275	1.002
17	119056	21.263377946275	1.002
17	119251	21.283377946275	1.002
17	119416	21.303377946275	1.002
17	119426	21.323377946275	1.002
17	119436	21.343377946275	1.002
17	119947	21.363377946275	1.002
17	120142	21.383377946275	1.002
17	120307	21.403377946275	1.002
17	120317	21.423377946275	1.002
17	120327	21.443377946275	1.002
17	120838	21.463377946275	1.002
17	121033	21.483377946275	1.002
17	121198	21.503377946275	1.002
17	121208	21.523377946275	1.002
17	121218	21.543377946275	1.002
17	121730	21.563377946275	1.002
17	121925	21.583377946275	1.002
17	122090	21.603377946275	1.002
17	122100	21.623377946275	1.002
17	122110	21.643377946275	1.002
17	122626	21.663377946275	1.002
17	122821	21.683377946275	1.002
17	122986	21.703377946275	1.002
17	122996	21.723377946275	1.002
17	123006	21.743377946275	1.002
17	123523	21.763377946275	1.002
17	123718	21.783377946275	1.002
17	123883	21.803377946275	1.002
17	123893	21.823377946275	1.002
17	123903	21.843377946275	1.002
17	124409	21.863377946275	1.002
17	124604	21.883377946275	1.002
17	124769	21.903377946275	1.002
17	124779	21.923377946275	1.002
17	124789	21.943377946275	1.002
17	125301	21.963377946275	1.002
17	125496	21.983377946275	1.002
17	125661	22.003377946275	1.002
17	125671	22.023377946275	1.002
17	125681	22.043377946275	1.002
17	126192	22.063377946275	1.002
17	126387	22.083377946275	1.002
17	126552	22.103377946275	1.002
17	126562	22.123377946275	1.002
17	126572	22.143377946275	1.002
17	127110	22.163377946275	1.002
17	127305	22.183377946275	1.002
17	127470	22.203377946275	1.002
17	127480	22.223377946275	1.002
17	127490	22.243377946275	1.002
17	127985	22.263377946275	1.002
17	128180	22.283377946275	1.002
17	128345	22.303377946275	1.002
17	128355	22.323377946275	1.002
17	128365	22.343377946275	1.002
17	128866	22.363377946275	1.002
17	129061	22.383377946275	1.002
17	129226	22.403377946275	1.002
17	129236	22.423377946275	1.002
17	129246	22.443377946275	1.002
17	129741	22.463377946275	1.002
17	129936	22.483377946275	1.002
17	130101	22.503377946275	1.002
17	130111	22.523377946275	1.002
17	130121	22.543377946275	1.002
17	130627	22.563377946275	1.002
17	130822	22.583377946275	1.002
17	130987	22.603377946275	1.002
17	130997	22.623377946275	1.002
17	131007	22.643377946275	1.002
17	131556	22.663377946275	1.002
17	131751	22.683377946275	1.002
17	131916	22.703377946275	1.002
17	131926	22.723377946275	1.002
17	131936	22.743377946275	1.002
17	132447	22.763377946275	1.002
17	132642	22.783377946275	1.002
17	132807	22.803377946275	1.002
17	132817	22.823377946275	1.002
17	132827	22.843377946275	1.002
17	133371	22.863377946275	1.002
17	133566	22.883377946275	1.002
17	133731	22.903377946275	1.002
17	133741	22.923377946275	1.002
17	133751	22.943377946275	1.002
17	134295	22.963377946275	1.002
17	134490	22.983377946275	1.002
17	134655	23.003377946275	1.002
17	134665	23.023377946275	1.002
17	134675	23.043377946275	1.002
17	135197	23.063377946275	1.002
17	135392	23.083377946275	1.002
17	135557	23.103377946275	1.002
17	135567	23.123377946275	1.002
17	135577	23.143377946275	1.002
17	136072	23.163377946275	1.002
17	136267	23.183377946275	1.002
17	136432	23.203377946275	1.002
17	136442	23.223377946275	1.002
17	136452	23.243377946275	1.002
17	136963	23.263377946275	1.002
17	137158	23.283377946275	1.002
17	137323	23.303377946275	1.002
17	137333	23.323377946275	1.002
17	137343	23.343377946275	1.002
17	137849	23.363377946275	1.002
17	138044	23.383377946275	1.002
17	138209	23.403377946275	1.002
17	138219	23.423377946275	1.002
17	138229	23.443377946275	1.002
17	138756	23.463377946275	1.002
17	138951	23.483377946275	1.002
17	139116	23.503377946275	1.002
17	139126	23.523377946275	1.002
17	139136	23.543377946275	1.002
17	139653	23.563377946275	1.002
17	139848	23.583377946275	1.002
17	140013	23.603377946275	1.002
17	140023	23.623377946275	1.002
17	140033	23.643377946275	1.002
17	140550	23.663377946275	1.002
17	140745	23.683377946275	1.002
17	140910	23.703377946275	1.002
17	140920	23.723377946275	1.002
17	140930	23.743377946275	1.002
17	141452	23.763377946275	1.002
17	141647	23.783377946275	1.002
17	141812	23.803377946275	1.002
17	141822	23.823377946275	1.002
17	141832	23.843377946275	1.002
17	142359	23.863377946275	1.002
17	142554	23.883377946275	1.002
17	142719	23.903377946275	1.002
17	142729	23.923377946275	1.002
17	142739	23.943377946275	1.002
17	143256	23.963377946275	1.002
17	143451	23.983377946275	1.002
17	143616	24.003377946275	1.002
17	143626	24.023377946275	1.002
17	143636	24.043377946275	1.002
17	144185	24.063377946275	1.002
17	144380	24.083377946275	1.002
17	144545	24.103377946275	1.002
17	144555	24.123377946275	1.002
17	144565	24.143377946275	1.002
17	145076	24.163377946275	1.002
17	145271	24.183377946275	1.002
17	145436	24.203377946275	1.002
17	145446	24.223377946275	1.002
17	145456	24.243377946275	1.002
17	145962	24.263377946275	1.002
17	146157	24.283377946275	1.002
17	146322	24.303377946275	1.002
17	146332	24.323377946275	1.002
17	146342	24.343377946275	1.002
17	146875	24.363377946275	1.002
17	147070	24.383377946275	1.002
17	147235	24.403377946275	1.002
17	147245	24.423377946275	1.002
17	147255	24.443377946275	1.002
17	147756	24.463377946275	1.002
17	147951	24.483377946275	1.002
17	148116	24.503377946275	1.002
17	148126	24.523377946275	1.002
17	148136	24.543377946275	1.002
17	148674	24.563377946275	1.002
17	148869	24.583377946275	1.002
17	149034	24.603377946275	1.002
17	149044	24.623377946275	1.002
17	149054	24.643377946275	1.002
17	149570	24.663377946275	1.002
17	149765	24.683377946275	1.002
17	149930	24.703377946275	1.002
17	149940	24.723377946275	1.002
17	149950	24.743377946275	1.002
17	150461	24.763377946275	1.002
17	150656	24.783377946275	1.002
17	150821	24.803377946275	1.002
17	150831	24.823377946275	1.002
17	150841	24.843377946275	1.002
17	151368	24.863377946275	1.002
17	151563	24.883377946275	1.002
17	151728	24.903377946275	1.002
17	151738	24.923377946275	1.002
17	151748	24.943377946275	1.002
17	152281	24.963377946275	1.002
17	152476	24.983377946275	1.002
17	152641	25.003377946275	1.002
17	152651	25.023377946275	1.002
17	152661	25.043377946275	1.002
17	153194	25.063377946275	1.002
17	153389	25.083377946275	1.002
17	153554	25.103377946275	1.002
17	153564	25.123377946275	1.002
17	153574	25.143377946275	1.002
17	154107	25.163377946275	1.002
17	154302	25.183377946275	1.002
17	154467	25.203377946275	1.002
17	154477	25.223377946275	1.002
17	154487	25.243377946275	1.002
17	155020	25.263377946275	1.002
17	155215	25.283377946275	1.002
17	155380	25.303377946275	1.002
17	155390	25.323377946275	1.002
17	155400	25.343377946275	1.002
17	155916	25.363377946275	1.002
17	156111	25.383377946275	1.002
17	156276	25.403377946275	1.002
17	156286	25.423377946275	1.002
17	156296	25.443377946275	1.002
17	156818	25.463377946275	1.002
17	157013	25.483377946275	1.002
17	157178	25.503377946275	1.002
17	157188	25.523377946275	1.002
17	157198	25.543377946275	1.002
17	157720	25.563377946275	1.002
17	157915	25.583377946275	1.002
17	158080	25.603377946275	1.002
17	158090	25.623377946275	1.002
17	158100	25.643377946275	1.002
17	158606	25.663377946275	1.002
17	158801	25.683377946275	1.002
17	158966	25.703377946275	1.002
17	158976	25.723377946275	1.002
17	158986	25.743377946275	1.002
17	159487	25.763377946275	1.002
17	159682	25.783377946275	1.002
17	159847	25.803377946275	1.002
17	159857	25.823377946275	1.002
17	159867	25.843377946275	1.002
17	160373	25.863377946275	1.002
17	160568	25.883377946275	1.002
17	160733	25.903377946275	1.002
17	160743	25.923377946275	1.002
17	160753	25.943377946275	1.002
17	161275	25.963377946275	1.002
17	161470	25.983377946275	1.002
17	161635	26.003377946275	1.002
17	161645	26.023377946275	1.002
17	161655	26.043377946275	1.002
17	162156	26.063377946275	1.002
17	162351	26.083377946275	1.002
17	162516	26.103377946275	1.002
17	162526	26.123377946275	1.002
17	162536	26.143377946275	1.002
17	163063	26.163377946275	1.002
17	163258	26.183377946275	1.002
17	163423	26.203377946275	1.002
17	163433	26.223377946275	1.002
17	163443	26.243377946275	1.002
17	163965	26.263377946275	1.002
17	164160	26.283377946275	1.002
17	164325	26.303377946275	1.002
17	164335	26.323377946275	1.002
17	164345	26.343377946275	1.002
17	164867	26.363377946275	1.002
17	165062	26.383377946275	1.002
17	165227	26.403377946275	1.002
17	165237	26.423377946275	1.002
17	165247	26.443377946275	1.002
17	165747	26.463377946275	1.002
17	165942	26.483377946275	1.002
17	166107	26.503377946275	1.002
17	166117	26.523377946275	1.002
17	166127	26.543377946275	1.002
17	166627	26.563377946275	1.002
17	166822	26.583377946275	1.002
17	166987	26.603377946275	1.002
17	166997	26.623377946275	1.002
17	167007	26.643377946275	1.002
17	167513	26.663377946275	1.002
17	167708	26.683377946275	1.002
17	167873	26.703377946275	1.002
17	167883	26.723377946275	1.002
17	167893	26.743377946275	1.002
17	168415	26.763377946275	1.002
17	168610	26.783377946275	1.002
17	168775	26.803377946275	1.002
17	168785	26.823377946275	1.002
17	168795	26.843377946275	1.002
17	169344	26.863377946275	1.002
17	169539	26.883377946275	1.002
17	169704	26.903377946275	1.002
17	169714	26.923377946275	1.002
17	169724	26.943377946275	1.002
17	170230	26.963377946275	1.002
17	170425	26.983377946275	1.002
17	170590	27.003377946275	1.002
17	170600	27.023377946275	1.002
17	170610	27.043377946275	1.002
17	171121	27.063377946275	1.002
17	171316	27.083377946275	1.002
17	171481	27.103377946275	1.002
17	171491	27.123377946275	1.002
17	171501	27.143377946275	1.002
17	172023	27.163377946275	1.002
17	172218	27.183377946275	1.002
17	172383	27.203377946275	1.002
17	172393	27.223377946275	1.002
17	172403	27.243377946275	1.002
17	172920	27.263377946275	1.002
17	173115	27.283377946275	1.002
17	173280	27.303377946275	1.002
17	173290	27.323377946275	1.002
17	173300	27.343377946275	1.002
17	173833	27.363377946275	1.002
17	174028	27.383377946275	1.002
17	174193	27.403377946275	1.002
17	174203	27.423377946275	1.002
17	174213	27.443377946275	1.002
17	174724	27.463377946275	1.002
17	174919	27.483377946275	1.002
17	175084	27.503377946275	1.002
17	175094	27.523377946275	1.002
17	175104	27.543377946275	1.002
17	175642	27.563377946275	1.002
17	175837	27.583377946275	1.002
17	176002	27.603377946275	1.002
17	176012	27.623377946275	1.002
17	176022	27.643377946275	1.002
17	176560	27.663377946275	1.002
17	176755	27.683377946275	1.002
17	176920	27.703377946275	1.002
17	176930	27.723377946275	1.002
17	176940	27.743377946275	1.002
17	177440	27.763377946275	1.002
17	177635	27.783377946275	1.002
17	177800	27.803377946275	1.002
17	177810	27.823377946275	1.002
17	177820	27.843377946275	1.002
17	178331	27.863377946275	1.002
17	178526	27.883377946275	1.002
17	178691	27.903377946275	1.002
17	178701	27.923377946275	1.002
17	178711	27.943377946275	1.002
17	179222	27.963377946275	1.002
17	179417	27.983377946275	1.002
17	179582	28.003377946275	1.002
17	179592	28.023377946275	1.002
17	179602	28.043377946275	1.002
17	180108	28.063377946275	1.002
17	180303	28.083377946275	1.002
17	180468	28.103377946275	1.002
17	180478	28.123377946275	1.002
17	180488	28.143377946275	1.002
17	181010	28.163377946275	1.002
17	181205	28.183377946275	1.002
17	181370	28.203377946275	1.002
17	181380	28.223377946275	1.002
17	181390	28.243377946275	1.002
17	181896	28.263377946275	1.002
17	182091	28.283377946275	1.002
17	182256	28.303377946275	1.002
17	182266	28.323377946275	1.002
17	182276	28.343377946275	1.002
17	182793	28.363377946275	1.002
17	182988	28.383377946275	1.002
17	183153	28.403377946275	1.002
17	183163	28.423377946275	1.002
17	183173	28.443377946275	1.002
17	183684	28.463377946275	1.002
17	183879	28.483377946275	1.002
17	184044	28.503377946275	1.002
17	184054	28.523377946275	1.002
17	184064	28.543377946275	1.002
17	184602	28.563377946275	1.002
17	184797	28.583377946275	1.002
17	184962	28.603377946275	1.002
17	184972	28.623377946275	1.002
17	184982	28.643377946275	1.002
17	185494	28.663377946275	1.002
17	185689	28.683377946275	1.002
17	185854	28.703377946275	1.002
17	185864	28.723377946275	1.002
17	185874	28.743377946275	1.002
17	186407	28.763377946275	1.002
17	186602	28.783377946275	1.002
17	186767	28.803377946275	1.002
17	186777	28.823377946275	1.002
17	186787	28.843377946275	1.002
17	187320	28.863377946275	1.002
17	187515	28.883377946275	1.002
17	187680	28.903377946275	1.002
17	187690	28.923377946275	1.002
17	187700	28.943377946275	1.002
17	188201	28.963377946275	1.002
17	188396	28.983377946275	1.002
17	188561	29.003377946275	1.002
17	188571	29.023377946275	1.002
17	188581	29.043377946275	1.002
17	189087	29.063377946275	1.002
17	189282	29.083377946275	1.002
17	189447	29.103377946275	1.002
17	189457	29.123377946275	1.002
17	189467	29.143377946275	1.002
17	189989	29.163377946275	1.002
17	190184	29.183377946275	1.002
17	190349	29.203377946275	1.002
17	190359	29.223377946275	1.002
17	190369	29.243377946275	1.002
17	190902	29.263377946275	1.002
17	191097	29.283377946275	1.002
17	191262	29.303377946275	1.002
17	191272	29.323377946275	1.002
17	191282	29.343377946275	1.002
17	191825	29.363377946275	1.002
17	192020	29.383377946275	1.002
17	192185	29.403377946275	1.002
17	192195	29.423377946275	1.002
17	192205	29.443377946275	1.002
17	192711	29.463377946275	1.002
17	192906	29.483377946275	1.002
17	193071	29.503377946275	1.002
17	193081	29.523377946275	1.002
17	193091	29.543377946275	1.002
17	193602	29.563377946275	1.002
17	193797	29.583377946275	1.002
17	193962	29.603377946275	1.002
17	193972	29.623377946275	1.002
17	193982	29.643377946275	1.002
17	194472	29.663377946275	1.002
17	194667	29.683377946275	1.002
17	194832	29.703377946275	1.002
17	194842	29.723377946275	1.002
17	194852	29.743377946275	1.002
17	195374	29.763377946275	1.002
17	195569	29.783377946275	1.002
17	195734	29.803377946275	1.002
17	195744	29.823377946275	1.002
17	195754	29.843377946275	1.002
17	196255	29.863377946275	1.002
17	196450	29.883377946275	1.002
17	196615	29.903377946275	1.002
17	196625	29.923377946275	1.002
17	196635	29.943377946275	1.002
17	197141	29.963377946275	1.002
17	197336	29.983377946275	1.002
17	197501	30.003377946275	1.002
17	197511	30.023377946275	1.002
17	197521	30.043377946275	1.002
17	198054	30.063377946275	1.002
17	198249	30.083377946275	1.002
17	198414	30.103377946275	1.002
17	198424	30.123377946275	1.002
17	198434	30.143377946275	1.002
17	198956	30.163377946275	1.002
17	199151	30.183377946275	1.002
17	199316	30.203377946275	1.002
17	199326	30.223377946275	1.002
17	199336	30.243377946275	1.002
17	199858	30.263377946275	1.002
17	200053	30.283377946275	1.002
17	200218	30.303377946275	1.002
17	200228	30.323377946275	1.002
17	200238	30.343377946275	1.002
17	200744	30.363377946275	1.002
17	200939	30.383377946275	1.002
17	201104	30.403377946275	1.002
17	201114	30.423377946275	1.002
17	201124	30.443377946275	1.002
17	201630	30.463377946275	1.002
17	201825	30.483377946275	1.002
17	201990	30.503377946275	1.002
17	202000	30.523377946275	1.002
17	202010	30.543377946275	1.002
17	202537	30.563377946275	1.002
17	202732	30.583377946275	1.002
17	202897	30.603377946275	1.002
17	202907	30.623377946275	1.002
17	202917	30.643377946275	1.002
17	203433	30.663377946275	1.002
17	203628	30.683377946275	1.002
17	203793	30.703377946275	1.002
17	203803	30.723377946275	1.002
17	203813	30.743377946275	1.002
17	204330	30.763377946275	1.002
17	204525	30.783377946275	1.002
17	204690	30.803377946275	1.002
17	204700	30.823377946275	1.002
17	204710	30.843377946275	1.002
17	205259	30.863377946275	1.002
17	205454	30.883377946275	1.002
17	205619	30.903377946275	1.002
17	205629	30.923377946275	1.002
17	205639	30.943377946275	1.002
17	206140	30.963377946275	1.002
17	206335	30.983377946275	1.002
17	206500	31.003377946275	1.002
17	206510	31.023377946275	1.002
17	206520	31.043377946275	1.002
17	207015	31.063377946275	1.002
17	207210	31.083377946275	1.002
17	207375	31.103377946275	1.002
17	207385	31.123377946275	1.002
17	207395	31.143377946275	1.002
17	207901	31.163377946275	1.002
17	208096	31.183377946275	1.002
17	208261	31.203377946275	1.002
17	208271	31.223377946275	1.002
17	208281	31.243377946275	1.002
17	208787	31.263377946275	1.002
17	208982	31.283377946275	1.002
17	209147	31.303377946275	1.002
17	209157	31.323377946275	1.002
17	209167	31.343377946275	1.002
17	209689	31.363377946275	1.002
17	209884	31.383377946275	1.002
17	210049	31.403377946275	1.002
17	210059	31.423377946275	1.002
17	210069	31.443377946275	1.002
17	210575	31.463377946275	1.002
17	210770	31.483377946275	1.002
17	210935	31.503377946275	1.002
17	210945	31.523377946275	1.002
17	210955	31.543377946275	1.002
17	211466	31.563377946275	1.002
17	211661	31.583377946275	1.002
17	211826	31.603377946275	1.002
17	211836	31.623377946275	1.002
17	211846	31.643377946275	1.002
17	212384	31.663377946275	1.002
17	212579	31.683377946275	1.002
17	212744	31.703377946275	1.002
17	212754	31.723377946275	1.002
17	212764	31.743377946275	1.002
17	213297	31.763377946275	1.002
17	213492	31.783377946275	1.002
17	213657	31.803377946275	1.002
17	213667	31.823377946275	1.002
17	213677	31.843377946275	1.002
17	214204	31.863377946275	1.002
17	214399	31.883377946275	1.002
17	214564	31.903377946275	1.002
17	214574	31.923377946275	1.002
17	214584	31.943377946275	1.002
17	215095	31.963377946275	1.002
17	215290	31.983377946275	1.002
17	215455	32.003377946275	1.002
17	215465	32.023377946275	1.002
17	215475	32.043377946275	1.002
17	215997	32.063377946275	1.002
17	216192	32.083377946275	1.002
17	216357	32.103377946275	1.002
17	216367	32.123377946275	1.002
17	216377	32.143377946275	1.002
17	216894	32.163377946275	1.002
17	217089	32.183377946275	1.002
17	217254	32.203377946275	1.002
17	217264	32.223377946275	1.002
17	217274	32.243377946275	1.002
17	217801	32.263377946275	1.002
17	217996	32.283377946275	1.002
17	218161	32.303377946275	1.002
17	218171	32.323377946275	1.002
17	218181	32.343377946275	1.002
17	218698	32.363377946275	1.002
17	218893	32.383377946275	1.002
17	219058	32.403377946275	1.002
17	219068	32.423377946275	1.002
17	219078	32.443377946275	1.002
17	219595	32.463377946275	1.002
17	219790	32.483377946275	1.002
17	219955	32.503377946275	1.002
17	219965	32.523377946275	1.002
17	219975	32.543377946275	1.002
17	220486	32.563377946275	1.002
17	220681	32.583377946275	1.002
17	220846	32.603377946275	1.002
17	220856	32.623377946275	1.002
17	220866	32.643377946275	1.002
17	221382	32.663377946275	1.002
17	221577	32.683377946275	1.002
17	221742	32.703377946275	1.002
17	221752	32.723377946275	1.002
17	221762	32.743377946275	1.002
17	222273	32.763377946275	1.002
17	222468	32.783377946275	1.002
17	222633	32.803377946275	1.002
17	222643	32.823377946275	1.002
17	222653	32.843377946275	1.002
17	223165	32.863377946275	1.002
17	223360	32.883377946275	1.002
17	223525	32.903377946275	1.002
17	223535	32.923377946275	1.002
17	223545	32.943377946275	1.002
17	224089	32.963377946275	1.002
17	224284	32.983377946275	1.002
17	224449	33.003377946275	1.002
17	224459	33.023377946275	1.002
17	224469	33.043377946275	1.002
17	224986	33.063377946275	1.002
17	225181	33.083377946275	1.002
17	225346	33.103377946275	1.002
17	225356	33.123377946275	1.002
17	225366	33.143377946275	1.002
17	225867	33.163377946275	1.002
17	226062	33.183377946275	1.002
17	226227	33.203377946275	1.002
17	226237	33.223377946275	1.002
17	226247	33.243377946275	1.002
17	226759	33.263377946275	1.002
17	226954	33.283377946275	1.002
17	227119	33.303377946275	1.002
17	227129	33.323377946275	1.002
17	227139	33.343377946275	1.002
17	227661	33.363377946275	1.002
17	227856	33.383377946275	1.002
17	228021	33.403377946275	1.002
17	228031	33.423377946275	1.002
17	228041	33.443377946275	1.002
17	228552	33.463377946275	1.002
17	228747	33.483377946275	1.002
17	228912	33.503377946275	1.002
17	228922	33.523377946275	1.002
17	228932	33.543377946275	1.002
17	229454	33.563377946275	1.002
17	229649	33.583377946275	1.002
17	229814	33.603377946275	1.002
17	229824	33.623377946275	1.002
17	229834	33.643377946275	1.002
17	230340	33.663377946275	1.002
17	230535	33.683377946275	1.002
17	230700	33.703377946275	1.002
17	230710	33.723377946275	1.002
17	230720	33.743377946275	1.002
17	231242	33.763377946275	1.002
17	231437	33.783377946275	1.002
17	231602	33.803377946275	1.002
17	231612	33.823377946275	1.002
17	231622	33.843377946275	1.002
17	232138	33.863377946275	1.002
17	232333	33.883377946275	1.002
17	232498	33.903377946275	1.002
17	232508	33.923377946275	1.002
17	232518	33.943377946275	1.002
17	233013	33.963377946275	1.002
17	233208	33.983377946275	1.002
17	233373	34.003377946275	1.002
17	233383	34.023377946275	1.002
17	233393	34.043377946275	1.002
17	233894	34.063377946275	1.002
17	234089	34.083377946275	1.002
17	234254	34.103377946275	1.002
17	234264	34.123377946275	1.002
17	234274	34.143377946275	1.002
17	234823	34.163377946275	1.002
17	235018	34.183377946275	1.002
17	235183	34.203377946275	1.002
17	235193	34.223377946275	1.002
17	235203	34.243377946275	1.002
17	235730	34.263377946275	1.002
17	235925	34.283377946275	1.002
17	236090	34.303377946275	1.002
17	236100	34.323377946275	1.002
17	236110	34.343377946275	1.002
17	236627	34.363377946275	1.002
17	236822	34.383377946275	1.002
17	236987	34.403377946275	1.002
17	236997	34.423377946275	1.002
17	237007	34.443377946275	1.002
17	237513	34.463377946275	1.002
17	237708	34.483377946275	1.002
17	237873	34.503377946275	1.002
17	237883	34.523377946275	1.002
17	237893	34.543377946275	1.002
17	238383	34.563377946275	1.002
17	238578	34.583377946275	1.002
17	238743	34.603377946275	1.002
17	238753	34.623377946275	1.002
17	238763	34.643377946275	1.002
17	239280	34.663377946275	1.002
17	239475	34.683377946275	1.002
17	239640	34.703377946275	1.002
17	239650	34.723377946275	1.002
17	239660	34.743377946275	1.002
17	240171	34.763377946275	1.002
17	240366	34.783377946275	1.002
17	240531	34.803377946275	1.002
17	240541	34.823377946275	1.002
17	240551	34.843377946275	1.002
17	241068	34.863377946275	1.002
17	241263	34.883377946275	1.002
17	241428	34.903377946275	1.002
17	241438	34.923377946275	1.002
17	241448	34.943377946275	1.002
17	241981	34.963377946275	1.002
17	242176	34.983377946275	1.002
17	242341	35.003377946275	1.002
17	242351	35.023377946275	1.002
17	242361	35.043377946275	1.002
17	242872	35.063377946275	1.002
17	243067	35.083377946275	1.002
17	243232	35.103377946275	1.002
17	243242	35.123377946275	1.002
17	243252	35.143377946275	1.002
17	243790	35.163377946275	1.002
17	243985	35.183377946275	1.002
17	244150	35.203377946275	1.002
17	244160	35.223377946275	1.002
17	244170	35.243377946275	1.002
17	244676	35.263377946275	1.002
17	244871	35.283377946275	1.002
17	245036	35.303377946275	1.002
17	245046	35.323377946275	1.002
17	245056	35.343377946275	1.002
17	245583	35.363377946275	1.002
17	245778	35.383377946275	1.002
17	245943	35.403377946275	1.002
17	245953	35.423377946275	1.002
17	245963	35.443377946275	1.002
17	246469	35.463377946275	1.002
17	246664	35.483377946275	1.002
17	246829	35.503377946275	1.002
17	246839	35.523377946275	1.002
17	246849	35.543377946275	1.002
17	247371	35.563377946275	1.002
17	247566	35.583377946275	1.002
17	247731	35.603377946275	1.002
17	247741	35.623377946275	1.002
17	247751	35.643377946275	1.002
17	248273	35.663377946275	1.002
17	248468	35.683377946275	1.002
17	248633	35.703377946275	1.002
17	248643	35.723377946275	1.002
17	248653	35.743377946275	1.002
17	249164	35.763377946275	1.002
17	249359	35.783377946275	1.002
17	249524	35.803377946275	1.002
17	249534	35.823377946275	1.002
17	249544	35.843377946275	1.002
17	250034	35.863377946275	1.002
17	250229	35.883377946275	1.002
17	250394	35.903377946275	1.002
17	250404	35.923377946275	1.002
17	250414	35.943377946275	1.002
17	250931	35.963377946275	1.002
17	251126	35.983377946275	1.002
17	251291	36.003377946275	1.002
17	251301	36.023377946275	1.002
17	251311	36.043377946275	1.002
17	251822	36.063377946275	1.002
17	252017	36.083377946275	1.002
17	252182	36.103377946275	1.002
17	252192	36.123377946275	1.002
17	252202	36.143377946275	1.002
17	252719	36.163377946275	1.002
17	252914	36.183377946275	1.002
17	253079	36.203377946275	1.002
17	253089	36.223377946275	1.002
17	253099	36.243377946275	1.002
17	253621	36.263377946275	1.002
17	253816	36.283377946275	1.002
17	253981	36.303377946275	1.002
17	253991	36.323377946275	1.002
17	254001	36.343377946275	1.002
17	254512	36.363377946275	1.002
17	254707	36.383377946275	1.002
17	254872	36.403377946275	1.002
17	254882	36.423377946275	1.002
17	254892	36.443377946275	1.002
17	255387	36.463377946275	1.002
17	255582	36.483377946275	1.002
17	255747	36.503377946275	1.002
17	255757	36.523377946275	1.002
17	255767	36.543377946275	1.002
17	256289	36.563377946275	1.002
17	256484	36.583377946275	1.002
17	256649	36.603377946275	1.002
17	256659	36.623377946275	1.002
17	256669	36.643377946275	1.002
17	257191	36.663377946275	1.002
17	257386	36.683377946275	1.002
17	257551	36.703377946275	1.002
17	257561	36.723377946275	1.002
17	257571	36.743377946275	1.002
17	258099	36.763377946275	1.002
17	258294	36.783377946275	1.002
17	258459	36.803377946275	1.002
17	258469	36.823377946275	1.002
17	258479	36.843377946275	1.002
17	259007	36.863377946275	1.002
17	259202	36.883377946275	1.002
17	259367	36.903377946275	1.002
17	259377	36.923377946275	1.002
17	259387	36.943377946275	1.002
17	259936	36.963377946275	1.002
17	260131	36.983377946275	1.002
17	260296	37.003377946275	1.002
17	260306	37.023377946275	1.002
17	260316	37.043377946275	1.002
17	260838	37.063377946275	1.002
17	261033	37.083377946275	1.002
17	261198	37.103377946275	1.002
17	261208	37.123377946275	1.002
17	261218	37.143377946275	1.002
17	261745	37.163377946275	1.002
17	261940	37.183377946275	1.002
17	262105	37.203377946275	1.002
17	262115	37.223377946275	1.002
17	262125	37.243377946275	1.002
17	262609	37.263377946275	1.002
17	262804	37.283377946275	1.002
17	262969	37.303377946275	1.002
17	262979	37.323377946275	1.002
17	262989	37.343377946275	1.002
17	263522	37.363377946275	1.002
17	263717	37.383377946275	1.002
17	263882	37.403377946275	1.002
17	263892	37.423377946275	1.002
17	263902	37.443377946275	1.002
17	264418	37.463377946275	1.002
17	264613	37.483377946275	1.002
17	264778	37.503377946275	1.002
17	264788	37.523377946275	1.002
17	264798	37.543377946275	1.002
17	265293	37.563377946275	1.002
17	265488	37.583377946275	1.002
17	265653	37.603377946275	1.002
17	265663	37.623377946275	1.002
17	265673	37.643377946275	1.002
17	266179	37.663377946275	1.002
17	266374	37.683377946275	1.002
17	266539	37.703377946275	1.002
17	266549	37.723377946275	1.002
17	266559	37.743377946275	1.002
17	267076	37.763377946275	1.002
17	267271	37.783377946275	1.002
17	267436	37.803377946275	1.002
17	267446	37.823377946275	1.002
17	267456	37.843377946275	1.002
17	268000	37.863377946275	1.002
17	268195	37.883377946275	1.002
17	268360	37.903377946275	1.002
17	268370	37.923377946275	1.002
17	268380	37.943377946275	1.002
17	268870	37.963377946275	1.002
17	269065	37.983377946275	1.002
17	269230	38.003377946275	1.002
17	269240	38.023377946275	1.002
17	269250	38.043377946275	1.002
17	269772	38.063377946275	1.002
17	269967	38.083377946275	1.002
17	270132	38.103377946275	1.002
17	270142	38.123377946275	1.002
17	270152	38.143377946275	1.002
17	270647	38.163377946275	1.002
17	270842	38.183377946275	1.002
17	271007	38.203377946275	1.002
17	271017	38.223377946275	1.002
17	271027	38.243377946275	1.002
17	271544	38.263377946275	1.002
17	271739	38.283377946275	1.002
17	271904	38.303377946275	1.002
17	271914	38.323377946275	1.002
17	271924	38.343377946275	1.002
17	272446	38.363377946275	1.002
17	272641	38.383377946275	1.002
17	272806	38.403377946275	1.002
17	272816	38.423377946275	1.002
17	272826	38.443377946275	1.002
17	273338	38.463377946275	1.002
17	273533	38.483377946275	1.002
17	273698	38.503377946275	1.002
17	273708	38.523377946275	1.002
17	273718	38.543377946275	1.002
17	274235	38.563377946275	1.002
17	274430	38.583377946275	1.002
17	274595	38.603377946275	1.002
17	274605	38.623377946275	1.002
17	274615	38.643377946275	1.002
17	275126	38.663377946275	1.002
17	275321	38.683377946275	1.002
17	275486	38.703377946275	1.002
17	275496	38.723377946275	1.002
17	275506	38.743377946275	1.002
17	276007	38.763377946275	1.002
17	276202	38.783377946275	1.002
17	276367	38.803377946275	1.002
17	276377	38.823377946275	1.002
17	276387	38.843377946275	1.002
17	276920	38.863377946275	1.002
17	277115	38.883377946275	1.002
17	277280	38.903377946275	1.002
17	277290	38.923377946275	1.002
17	277300	38.943377946275	1.002
17	277801	38.963377946275	1.002
17	277996	38.983377946275	1.002
17	278161	39.003377946275	1.002
17	278171	39.023377946275	1.002
17	278181	39.043377946275	1.002
17	278693	39.063377946275	1.002
17	278888	39.083377946275	1.002
17	279053	39.103377946275	1.002
17	279063	39.123377946275	1.002
17	279073	39.143377946275	1.002
17	279590	39.163377946275	1.002
17	279785	39.183377946275	1.002
17	279950	39.203377946275	1.002
17	279960	39.223377946275	1.002
17	279970	39.243377946275	1.002
17	280503	39.263377946275	1.002
17	280698	39.283377946275	1.002
17	280863	39.303377946275	1.002
17	280873	39.323377946275	1.002
17	280883	39.343377946275	1.002
17	281394	39.363377946275	1.002
17	281589	39.383377946275	1.002
17	281754	39.403377946275	1.002
17	281764	39.423377946275	1.002
17	281774	39.443377946275	1.002
17	282296	39.463377946275	1.002
17	282491	39.483377946275	1.002
17	282656	39.503377946275	1.002
17	282666	39.523377946275	1.002
17	282676	39.543377946275	1.002
17	283198	39.563377946275	1.002
17	283393	39.583377946275	1.002
17	283558	39.603377946275	1.002
17	283568	39.623377946275	1.002
17	283578	39.643377946275	1.002
17	284084	39.663377946275	1.002
17	284279	39.683377946275	1.002
17	284444	39.703377946275	1.002
17	284454	39.723377946275	1.002
17	284464	39.743377946275	1.002
17	284997	39.763377946275	1.002
17	285192	39.783377946275	1.002
17	285357	39.803377946275	1.002
17	285367	39.823377946275	1.002
17	285377	39.843377946275	1.002
17	285894	39.863377946275	1.002
17	286089	39.883377946275	1.002
17	286254	39.903377946275	1.002
17	286264	39.923377946275	1.002
17	286274	39.943377946275	1.002
17	286818	39.963377946275	1.002
17	287013	39.983377946275	1.002
17	287178	40.003377946275	1.002
17	287188	40.023377946275	1.002
17	287198	40.043377946275	1.002
17	287742	40.063377946275	1.002
17	287937	40.083377946275	1.002
17	288102	40.103377946275	1.002
17	288112	40.123377946275	1.002
17	288122	40.143377946275	1.002
17	288639	40.163377946275	1.002
17	288834	40.183377946275	1.002
17	288999	40.203377946275	1.002
17	289009	40.223377946275	1.002
17	289019	40.243377946275	1.002
17	289525	40.263377946275	1.002
17	289720	40.283377946275	1.002
17	289885	40.303377946275	1.002
17	289895	40.323377946275	1.002
17	289905	40.343377946275	1.002
17	290432	40.363377946275	1.002
17	290627	40.383377946275	1.002
17	290792	40.403377946275	1.002
17	290802	40.423377946275	1.002
17	290812	40.443377946275	1.002
17	291329	40.463377946275	1.002
17	291524	40.483377946275	1.002
17	291689	40.503377946275	1.002
17	291699	40.523377946275	1.002
17	291709	40.543377946275	1.002
17	292242	40.563377946275	1.002
17	292437	40.583377946275	1.002
17	292602	40.603377946275	1.002
17	292612	40.623377946275	1.002
17	292622	40.643377946275	1.002
17	293139	40.663377946275	1.002
17	293334	40.683377946275	1.002
17	293499	40.703377946275	1.002
17	293509	40.723377946275	1.002
17	293519	40.743377946275	1.002
17	294057	40.763377946275	1.002
17	294252	40.783377946275	1.002
17	294417	40.803377946275	1.002
17	294427	40.823377946275	1.002
17	294437	40.843377946275	1.002
17	294959	40.863377946275	1.002
17	295154	40.883377946275	1.002
17	295319	40.903377946275	1.002
17	295329	40.923377946275	1.002
17	295339	40.943377946275	1.002
17	295829	40.963377946275	1.002
17	296024	40.983377946275	1.002
17	296189	41.003377946275	1.002
17	296199	41.023377946275	1.002
17	296209	41.043377946275	1.002
17	296715	41.063377946275	1.002
17	296910	41.083377946275	1.002
17	297075	41.103377946275	1.002
17	297085	41.123377946275	1.002
17	297095	41.143377946275	1.002
17	297601	41.163377946275	1.002
17	297796	41.183377946275	1.002
17	297961	41.203377946275	1.002
17	297971	41.223377946275	1.002
17	297981	41.243377946275	1.002
17	298509	41.263377946275	1.002
17	298704	41.283377946275	1.002
17	298869	41.303377946275	1.002
17	298879	41.323377946275	1.002
17	298889	41.343377946275	1.002
17	299427	41.363377946275	1.002
17	299622	41.383377946275	1.002
17	299787	41.403377946275	1.002
17	299797	41.423377946275	1.002
17	299807	41.443377946275	1.002
17	300313	41.463377946275	1.002
17	300508	41.483377946275	1.002
17	300673	41.503377946275	1.002
17	300683	41.523377946275	1.002
17	300693	41.543377946275	1.002
17	301220	41.563377946275	1.002
17	301415	41.583377946275	1.002
17	301580	41.603377946275	1.002
17	301590	41.623377946275	1.002
17	301600	41.643377946275	1.002
17	302127	41.663377946275	1.002
17	302322	41.683377946275	1.002
17	302487	41.703377946275	1.002
17	302497	41.723377946275	1.002
17	302507	41.743377946275	1.002
17	303029	41.763377946275	1.002
17	303224	41.783377946275	1.002
17	303389	41.803377946275	1.002
17	303399	41.823377946275	1.002
17	303409	41.843377946275	1.002
17	303915	41.863377946275	1.002
17	304110	41.883377946275	1.002
17	304275	41.903377946275	1.002
17	304285	41.923377946275	1.002
17	304295	41.943377946275	1.002
17	304817	41.963377946275	1.002
17	305012	41.983377946275	1.002
17	305177	42.003377946275	1.002
17	305187	42.023377946275	1.002
17	305197	42.043377946275	1.002
17	305741	42.063377946275	1.002
17	305936	42.083377946275	1.002
17	306101	42.103377946275	1.002
17	306111	42.123377946275	1.002
17	306121	42.143377946275	1.002
17	306605	42.163377946275	1.002
17	306800	42.183377946275	1.002
17	306965	42.203377946275	1.002
17	306975	42.223377946275	1.002
17	306985	42.243377946275	1.002
17	307485	42.263377946275	1.002
17	307680	42.283377946275	1.002
17	307845	42.303377946275	1.002
17	307855	42.323377946275	1.002
17	307865	42.343377946275	1.002
17	308371	42.363377946275	1.002
17	308566	42.383377946275	1.002
17	308731	42.403377946275	1.002
17	308741	42.423377946275	1.002
17	308751	42.443377946275	1.002
17	309284	42.463377946275	1.002
17	309479	42.483377946275	1.002
17	309644	42.503377946275	1.002
17	309654	42.523377946275	1.002
17	309664	42.543377946275	1.002
17	310186	42.563377946275	1.002
17	310381	42.583377946275	1.002
17	310546	42.603377946275	1.002
17	310556	42.623377946275	1.002
17	310566	42.643377946275	1.002
17	311066	42.663377946275	1.002
17	311261	42.683377946275	1.002
17	311426	42.703377946275	1.002
17	311436	42.723377946275	1.002
17	311446	42.743377946275	1.002
17	311968	42.763377946275	1.002
17	312163	42.783377946275	1.002
17	312328	42.803377946275	1.002
17	312338	42.823377946275	1.002
17	312348	42.843377946275	1.002
17	312876	42.863377946275	1.002
17	313071	42.883377946275	1.002
17	313236	42.903377946275	1.002
17	313246	42.923377946275	1.002
17	313256	42.943377946275	1.002
17	313767	42.963377946275	1.002
17	313962	42.983377946275	1.002
17	314127	43.003377946275	1.002
17	314137	43.023377946275	1.002
17	314147	43.043377946275	1.002
17	314637	43.063377946275	1.002
17	314832	43.083377946275	1.002
17	314997	43.103377946275	1.002
17	315007	43.123377946275	1.002
17	315017	43.143377946275	1.002
17	315528	43.163377946275	1.002
17	315723	43.183377946275	1.002
17	315888	43.203377946275	1.002
17	315898	43.223377946275	1.002
17	315908	43.243377946275	1.002
17	316462	43.263377946275	1.002
17	316657	43.283377946275	1.002
17	316822	43.303377946275	1.002
17	316832	43.323377946275	1.002
17	316842	43.343377946275	1.002
17	317348	43.363377946275	1.002
17	317543	43.383377946275	1.002
17	317708	43.403377946275	1.002
17	317718	43.423377946275	1.002
17	317728	43.443377946275	1.002
17	318240	43.463377946275	1.002
17	318435	43.483377946275	1.002
17	318600	43.503377946275	1.002
17	318610	43.523377946275	1.002
17	318620	43.543377946275	1.002
17	319131	43.563377946275	1.002
17	319326	43.583377946275	1.002
17	319491	43.603377946275	1.002
17	319501	43.623377946275	1.002
17	319511	43.643377946275	1.002
17	320017	43.663377946275	1.002
17	320212	43.683377946275	1.002
17	320377	43.703377946275	1.002
17	320387	43.723377946275	1.002
17	320397	43.743377946275	1.002
17	320935	43.763377946275	1.002
17	321130	43.783377946275	1.002
17	321295	43.803377946275	1.002
17	321305	43.823377946275	1.002
17	321315	43.843377946275	1.002
17	321837	43.863377946275	1.002
17	322032	43.883377946275	1.002
17	322197	43.903377946275	1.002
17	322207	43.923377946275	1.002
17	322217	43.943377946275	1.002
17	322728	43.963377946275	1.002
17	322923	43.983377946275	1.002
17	323088	44.003377946275	1.002
17	323098	44.023377946275	1.002
17	323108	44.043377946275	1.002
17	323630	44.063377946275	1.002
17	323825	44.083377946275	1.002
17	323990	44.103377946275	1.002
17	324000	44.123377946275	1.002
17	324010	44.143377946275	1.002
17	324532	44.163377946275	1.002
17	324727	44.183377946275	1.002
17	324892	44.203377946275	1.002
17	324902	44.223377946275	1.002
17	324912	44.243377946275	1.002
17	325413	44.263377946275	1.002
17	325608	44.283377946275	1.002
17	325773	44.303377946275	1.002
17	325783	44.323377946275	1.002
17	325793	44.343377946275	1.002
17	326326	44.363377946275	1.002
17	326521	44.383377946275	1.002
17	326686	44.403377946275	1.002
17	326696	44.423377946275	1.002
17	326706	44.443377946275	1.002
17	327217	44.463377946275	1.002
17	327412	44.483377946275	1.002
17	327577	44.503377946275	1.002
17	327587	44.523377946275	1.002
17	327597	44.543377946275	1.002
17	328114	44.563377946275	1.002
17	328309	44.583377946275	1.002
17	328474	44.603377946275	1.002
17	328484	44.623377946275	1.002
17	328494	44.643377946275	1.002
17	329005	44.663377946275	1.002
17	329200	44.683377946275	1.002
17	329365	44.703377946275	1.002
17	329375	44.723377946275	1.002
17	329385	44.743377946275	1.002
17	329907	44.763377946275	1.002
17	330102	44.783377946275	1.002
17	330267	44.803377946275	1.002
17	330277	44.823377946275	1.002
17	330287	44.843377946275	1.002
17	330804	44.863377946275	1.002
17	330999	44.883377946275	1.002
17	331164	44.903377946275	1.002
17	331174	44.923377946275	1.002
17	331184	44.943377946275	1.002
17	331701	44.963377946275	1.002
17	331896	44.983377946275	1.002
17	332061	45.003377946275	1.002
17	332071	45.023377946275	1.002
17	332081	45.043377946275	1.002
17	332598	45.063377946275	1.002
17	332793	45.083377946275	1.002
17	332958	45.103377946275	1.002
17	332968	45.123377946275	1.002
17	332978	45.143377946275	1.002
17	333479	45.163377946275	1.002
17	333674	45.183377946275	1.002
17	333839	45.203377946275	1.002
17	333849	45.223377946275	1.002
17	333859	45.243377946275	1.002
17	334354	45.263377946275	1.002
17	334549	45.283377946275	1.002
17	334714	45.303377946275	1.002
17	334724	45.323377946275	1.002
17	334734	45.343377946275	1.002
17	335256	45.363377946275	1.002
17	335451	45.383377946275	1.002
17	335616	45.403377946275	1.002
17	335626	45.423377946275	1.002
17	335636	45.443377946275	1.002
17	336164	45.463377946275	1.002
17	336359	45.483377946275	1.002
17	336524	45.503377946275	1.002
17	336534	45.523377946275	1.002
17	336544	45.543377946275	1.002
17	337044	45.563377946275	1.002
17	337239	45.583377946275	1.002
17	337404	45.603377946275	1.002
17	337414	45.623377946275	1.002
17	337424	45.643377946275	1.002
17	337951	45.663377946275	1.002
17	338146	45.683377946275	1.002
17	338311	45.703377946275	1.002
17	338321	45.723377946275	1.002
17	338331	45.743377946275	1.002
17	338869	45.763377946275	1.002
17	339064	45.783377946275	1.002
17	339229	45.803377946275	1.002
17	339239	45.823377946275	1.002
17	339249	45.843377946275	1.002
17	339771	45.863377946275	1.002
17	339966	45.883377946275	1.002
17	340131	45.903377946275	1.002
17	340141	45.923377946275	1.002
17	340151	45.943377946275	1.002
17	340647	45.963377946275	1.002
17	340842	45.983377946275	1.002
17	341007	46.003377946275	1.002
17	341017	46.023377946275	1.002
17	341027	46.043377946275	1.002
17	341528	46.063377946275	1.002
17	341723	46.083377946275	1.002
17	341888	46.103377946275	1.002
17	341898	46.123377946275	1.002
17	341908	46.143377946275	1.002
17	342446	46.163377946275	1.002
17	342641	46.183377946275	1.002
17	342806	46.203377946275	1.002
17	342816	46.223377946275	1.002
17	342826	46.243377946275	1.002
17	343343	46.263377946275	1.002
17	343538	46.283377946275	1.002
17	343703	46.303377946275	1.002
17	343713	46.323377946275	1.002
17	343723	46.343377946275	1.002
17	344240	46.363377946275	1.002
17	344435	46.383377946275	1.002
17	344600	46.403377946275	1.002
17	344610	46.423377946275	1.002
17	344620	46.443377946275	1.002
17	345115	46.463377946275	1.002
17	345310	46.483377946275	1.002
17	345475	46.503377946275	1.002
17	345485	46.523377946275	1.002
17	345495	46.543377946275	1.002
17	346001	46.563377946275	1.002
17	346196	46.583377946275	1.002
17	346361	46.603377946275	1.002
17	346371	46.623377946275	1.002
17	346381	46.643377946275	1.002
17	346903	46.663377946275	1.002
17	347098	46.683377946275	1.002
17	347263	46.703377946275	1.002
17	347273	46.723377946275	1.002
17	347283	46.743377946275	1.002
17	347799	46.763377946275	1.002
17	347994	46.783377946275	1.002
17	348159	46.803377946275	1.002
17	348169	46.823377946275	1.002
17	348179	46.843377946275	1.002
17	348717	46.863377946275	1.002
17	348912	46.883377946275	1.002
17	349077	46.903377946275	1.002
17	349087	46.923377946275	1.002
17	349097	46.943377946275	1.002
17	349608	46.963377946275	1.002
17	349803	46.983377946275	1.002
17	349968	47.003377946275	1.002
17	349978	47.023377946275	1.002
17	349988	47.043377946275	1.002
17	350521	47.063377946275	1.002
17	350716	47.083377946275	1.002
17	350881	47.103377946275	1.002
17	350891	47.123377946275	1.002
17	350901	47.143377946275	1.002
17	351418	47.163377946275	1.002
17	351613	47.183377946275	1.002
17	351778	47.203377946275	1.002
17	351788	47.223377946275	1.002
17	351798	47.243377946275	1.002
17	352304	47.263377946275	1.002
17	352499	47.283377946275	1.002
17	352664	47.303377946275	1.002
17	352674	47.323377946275	1.002
17	352684	47.343377946275	1.002
17	353206	47.363377946275	1.002
17	353401	47.383377946275	1.002
17	353566	47.403377946275	1.002
17	353576	47.423377946275	1.002
17	353586	47.443377946275	1.002
[...]
14	330263	44.800279767208	0.002
14	330297	44.850279767208	0.001
14	331160	44.900279767208	0.002
14	331194	44.950279767208	0.001
14	332057	45.000279767208	0.002
14	332091	45.050279767208	0.001
14	332954	45.100279767208	0.002
14	332988	45.150279767208	0.001
14	333835	45.200279767208	0.002
14	333869	45.250279767208	0.001
14	334710	45.300279767208	0.002
14	334744	45.350279767208	0.001
14	335612	45.400279767208	0.002
14	335646	45.450279767208	0.001
14	336520	45.500279767208	0.002
14	336554	45.550279767208	0.001
14	337400	45.600279767208	0.002
14	337434	45.650279767208	0.001
14	338307	45.700279767208	0.002
14	338341	45.750279767208	0.001
14	339225	45.800279767208	0.002
14	339259	45.850279767208	0.001
14	340127	45.900279767208	0.002
14	340161	45.950279767208	0.001
14	341003	46.000279767208	0.002
14	341037	46.050279767208	0.001
14	341884	46.100279767208	0.002
14	341918	46.150279767208	0.001
14	342802	46.200279767208	0.002
14	342836	46.250279767208	0.001
14	343699	46.300279767208	0.002
14	343733	46.350279767208	0.001
14	344596	46.400279767208	0.002
14	344630	46.450279767208	0.001
14	345471	46.500279767208	0.002
14	345505	46.550279767208	0.001
14	346357	46.600279767208	0.002
14	346391	46.650279767208	0.001
14	347259	46.700279767208	0.002
14	347293	46.750279767208	0.001
14	348155	46.800279767208	0.002
14	348189	46.850279767208	0.001
14	349073	46.900279767208	0.002
14	349107	46.950279767208	0.001
14	349964	47.000279767208	0.002
14	349998	47.050279767208	0.001
14	350877	47.100279767208	0.002
14	350911	47.150279767208	0.001
14	351774	47.200279767208	0.002
14	351808	47.250279767208	0.001
14	352660	47.300279767208	0.002
14	352694	47.350279767208	0.001
14	353562	47.400279767208	0.002
14	353596	47.450279767208	0.001
14	354454	47.500279767208	0.002
14	354488	47.550279767208	0.001
14	355345	47.600279767208	0.002
14	355379	47.650279767208	0.001
14	356247	47.700279767208	0.002
14	356281	47.750279767208	0.001
14	357165	47.800279767208	0.002
14	357199	47.850279767208	0.001
14	358056	47.900279767208	0.002
14	358090	47.950279767208	0.001
14	358969	48.000279767208	0.002
14	359003	48.050279767208	0.001
14	359855	48.100279767208	0.002
14	359889	48.150279767208	0.001
14	360763	48.200279767208	0.002
14	360797	48.250279767208	0.001
14	361665	48.300279767208	0.002
14	361699	48.350279767208	0.001
14	362567	48.400279767208	0.002
14	362601	48.450279767208	0.001
14	363453	48.500279767208	0.002
14	363487	48.550279767208	0.001
14	364328	48.600279767208	0.002
14	364362	48.650279767208	0.001
14	365230	48.700279767208	0.002
14	365264	48.750279767208	0.001
14	366154	48.800279767208	0.002
14	366188	48.850279767208	0.001
14	367045	48.900279767208	0.002
14	367079	48.950279767208	0.001
14	367947	49.000279767208	0.002
14	367981	49.050279767208	0.001
14	368833	49.100279767208	0.002
14	368867	49.150279767208	0.001
14	369746	49.200279767208	0.002
14	369780	49.250279767208	0.001
14	370637	49.300279767208	0.002
14	370671	49.350279767208	0.001
14	371539	49.400279767208	0.002
14	371573	49.450279767208	0.001
14	372430	49.500279767208	0.002
14	372464	49.550279767208	0.001
14	373327	49.600279767208	0.002
14	373361	49.650279767208	0.001
14	374229	49.700279767208	0.002
14	374263	49.750279767208	0.001
14	375126	49.800279767208	0.002
14	375160	49.850279767208	0.001
14	376033	49.900279767208	0.002
14	376067	49.950279767208	0.001
14	376903	50.000279767208	0.002
14	376937	50.050279767208	0.001
14	377811	50.100279767208	0.002
14	377845	50.150279767208	0.001
14	378702	50.200279767208	0.002
14	378736	50.250279767208	0.001
14	379604	50.300279767208	0.002
14	379638	50.350279767208	0.001
14	380490	50.400279767208	0.002
14	380524	50.450279767208	0.001
14	381397	50.500279767208	0.002
14	381431	50.550279767208	0.001
14	382304	50.600279767208	0.002
14	382338	50.650279767208	0.001
14	383217	50.700279767208	0.002
14	383251	50.750279767208	0.001
14	384103	50.800279767208	0.002
14	384137	50.850279767208	0.001
14	385005	50.900279767208	0.002
14	385039	50.950279767208	0.001
14	385896	51.000279767208	0.002
14	385930	51.050279767208	0.001
14	386777	51.100279767208	0.002
14	386811	51.150279767208	0.001
14	387695	51.200279767208	0.002
14	387729	51.250279767208	0.001
14	388575	51.300279767208	0.002
14	388609	51.350279767208	0.001
14	389477	51.400279767208	0.002
14	389511	51.450279767208	0.001
14	390363	51.500279767208	0.002
14	390397	51.550279767208	0.001
14	391276	51.600279767208	0.002
14	391310	51.650279767208	0.001
14	392178	51.700279767208	0.002
14	392212	51.750279767208	0.001
14	393048	51.800279767208	0.002
14	393082	51.850279767208	0.001
14	393939	51.900279767208	0.002
14	393973	51.950279767208	0.001
14	394841	52.000279767208	0.002
14	394875	52.050279767208	0.001
14	395738	52.100279767208	0.002
14	395772	52.150279767208	0.001
14	396608	52.200279767208	0.002
14	396642	52.250279767208	0.001
14	397532	52.300279767208	0.002
14	397566	52.350279767208	0.001
14	398412	52.400279767208	0.002
14	398446	52.450279767208	0.001
14	399309	52.500279767208	0.002
14	399343	52.550279767208	0.001
14	400195	52.600279767208	0.002
14	400229	52.650279767208	0.001
14	401102	52.700279767208	0.002
14	401136	52.750279767208	0.001
14	402015	52.800279767208	0.002
14	402049	52.850279767208	0.001
14	402906	52.900279767208	0.002
14	402940	52.950279767208	0.001
14	403803	53.000279767208	0.002
14	403837	53.050279767208	0.001
14	404705	53.100279767208	0.002
14	404739	53.150279767208	0.001
14	405607	53.200279767208	0.002
14	405641	53.250279767208	0.001
14	406520	53.300279767208	0.002
14	406554	53.350279767208	0.001
14	407417	53.400279767208	0.002
14	407451	53.450279767208	0.001
14	408314	53.500279767208	0.002
14	408348	53.550279767208	0.001
14	409216	53.600279767208	0.002
14	409250	53.650279767208	0.001
14	410102	53.700279767208	0.002
14	410136	53.750279767208	0.001
14	411015	53.800279767208	0.002
14	411049	53.850279767208	0.001
14	411896	53.900279767208	0.002
14	411930	53.950279767208	0.001
14	412782	54.000279767208	0.002
14	412816	54.050279767208	0.001
14	413684	54.100279767208	0.002
14	413718	54.150279767208	0.001
14	414575	54.200279767208	0.002
14	414609	54.250279767208	0.001
14	415466	54.300279767208	0.002
14	415500	54.350279767208	0.001
14	416373	54.400279767208	0.002
14	416407	54.450279767208	0.001
14	417280	54.500279767208	0.002
14	417314	54.550279767208	0.001
14	418150	54.600279767208	0.002
14	418184	54.650279767208	0.001
14	419047	54.700279767208	0.002
14	419081	54.750279767208	0.001
14	419949	54.800279767208	0.002
14	419983	54.850279767208	0.001
14	420840	54.900279767208	0.002
14	420874	54.950279767208	0.001
14	421763	55.000279767208	0.002
14	421797	55.050279767208	0.001
14	422644	55.100279767208	0.002
14	422678	55.150279767208	0.001
14	423557	55.200279767208	0.002
14	423591	55.250279767208	0.001
14	424481	55.300279767208	0.002
14	424515	55.350279767208	0.001
14	425356	55.400279767208	0.002
14	425390	55.450279767208	0.001
14	426252	55.500279767208	0.002
14	426286	55.550279767208	0.001
14	427165	55.600279767208	0.002
14	427199	55.650279767208	0.001
14	428078	55.700279767208	0.002
14	428112	55.750279767208	0.001
14	428969	55.800279767208	0.002
14	429003	55.850279767208	0.001
14	429844	55.900279767208	0.002
14	429878	55.950279767208	0.001
14	430746	56.000279767208	0.002
14	430780	56.050279767208	0.001
14	431642	56.100279767208	0.002
14	431676	56.150279767208	0.001
14	432512	56.200279767208	0.002
14	432546	56.250279767208	0.001
14	433414	56.300279767208	0.002
14	433448	56.350279767208	0.001
14	434300	56.400279767208	0.002
14	434334	56.450279767208	0.001
14	435202	56.500279767208	0.002
14	435236	56.550279767208	0.001
14	436104	56.600279767208	0.002
14	436138	56.650279767208	0.001
14	437017	56.700279767208	0.002
14	437051	56.750279767208	0.001
14	437925	56.800279767208	0.002
14	437959	56.850279767208	0.001
14	438800	56.900279767208	0.002
14	438834	56.950279767208	0.001
14	439686	57.000279767208	0.002
14	439720	57.050279767208	0.001
14	440572	57.100279767208	0.002
14	440606	57.150279767208	0.001
14	441469	57.200279767208	0.002
14	441503	57.250279767208	0.001
14	442371	57.300279767208	0.002
14	442405	57.350279767208	0.001
14	443262	57.400279767208	0.002
14	443296	57.450279767208	0.001
14	444180	57.500279767208	0.002
14	444214	57.550279767208	0.001
14	445088	57.600279767208	0.002
14	445122	57.650279767208	0.001
14	446006	57.700279767208	0.002
14	446040	57.750279767208	0.001
14	446908	57.800279767208	0.002
14	446942	57.850279767208	0.001
14	447805	57.900279767208	0.002
14	447839	57.950279767208	0.001
14	448691	58.000279767208	0.002
14	448725	58.050279767208	0.001
14	449588	58.100279767208	0.002
14	449622	58.150279767208	0.001
14	450479	58.200279767208	0.002
14	450513	58.250279767208	0.001
14	451392	58.300279767208	0.002
14	451426	58.350279767208	0.001
14	452289	58.400279767208	0.002
14	452323	58.450279767208	0.001
14	453180	58.500279767208	0.002
14	453214	58.550279767208	0.001
14	454066	58.600279767208	0.002
14	454100	58.650279767208	0.001
14	454973	58.700279767208	0.002
14	455007	58.750279767208	0.001
14	455854	58.800279767208	0.002
14	455888	58.850279767208	0.001
14	456745	58.900279767208	0.002
14	456779	58.950279767208	0.001
14	457641	59.000279767208	0.002
14	457675	59.050279767208	0.001
14	458521	59.100279767208	0.002
14	458555	59.150279767208	0.001
14	459423	59.200279767208	0.002
14	459457	59.250279767208	0.001
14	460309	59.300279767208	0.002
14	460343	59.350279767208	0.001
14	461195	59.400279767208	0.002
14	461229	59.450279767208	0.001
14	462091	59.500279767208	0.002
14	462125	59.550279767208	0.001
14	462977	59.600279767208	0.002
14	463011	59.650279767208	0.001
14	463857	59.700279767208	0.002
14	463891	59.750279767208	0.001
14	464775	59.800279767208	0.002
14	464809	59.850279767208	0.001
14	465667	59.900279767208	0.002
14	465701	59.950279767208	0.001
14	466564	60.000279767208	0.002
14	466598	60.050279767208	0.001
14	467460	60.100279767208	0.002
14	467494	60.150279767208	0.001
14	468357	60.200279767208	0.002
14	468391	60.250279767208	0.001
14	469270	60.300279767208	0.002
14	469304	60.350279767208	0.001
14	470167	60.400279767208	0.002
14	470201	60.450279767208	0.001
14	471058	60.500279767208	0.002
14	471092	60.550279767208	0.001
14	471976	60.600279767208	0.002
14	472010	60.650279767208	0.001
14	472894	60.700279767208	0.002
14	472928	60.750279767208	0.001
14	473796	60.800279767208	0.002
14	473830	60.850279767208	0.001
14	474703	60.900279767208	0.002
14	474737	60.950279767208	0.001
14	475594	61.000279767208	0.002
14	475628	61.050279767208	0.001
14	476480	61.100279767208	0.002
14	476514	61.150279767208	0.001
14	477377	61.200279767208	0.002
14	477411	61.250279767208	0.001
14	478274	61.300279767208	0.002
14	478308	61.350279767208	0.001
14	479187	61.400279767208	0.002
14	479221	61.450279767208	0.001
14	480079	61.500279767208	0.002
14	480113	61.550279767208	0.001
14	480996	61.600279767208	0.002
14	481023	61.650279767208	0.001
14	481615	61.700279767208	0.002
14	481642	61.750279767208	0.001
14	482242	61.800279767208	0.002
14	482269	61.850279767208	0.001
14	482856	61.900279767208	0.002
14	482883	61.950279767208	0.001
14	483470	62.000279767208	0.002
14	483497	62.050279767208	0.001
14	484076	62.100279767208	0.002
14	484103	62.150279767208	0.001
14	484686	62.200279767208	0.002
14	484713	62.250279767208	0.001
14	485300	62.300279767208	0.002
14	485327	62.350279767208	0.001
14	485910	62.400279767208	0.002
14	485937	62.450279767208	0.001
14	486524	62.500279767208	0.002
14	486551	62.550279767208	0.001
14	487156	62.600279767208	0.002
14	487183	62.650279767208	0.001
14	487779	62.700279767208	0.002
14	487806	62.750279767208	0.001
14	488393	62.800279767208	0.002
14	488420	62.850279767208	0.001
14	489016	62.900279767208	0.002
14	489043	62.950279767208	0.001
14	489661	63.000279767208	0.002
14	489688	63.050279767208	0.001
14	490284	63.100279767208	0.002
14	490311	63.150279767208	0.001
14	490929	63.200279767208	0.002
14	490956	63.250279767208	0.001
14	491548	63.300279767208	0.002
14	491575	63.350279767208	0.001
14	492175	63.400279767208	0.002
14	492202	63.450279767208	0.001
14	492785	63.500279767208	0.002
14	492812	63.550279767208	0.001
14	493399	63.600279767208	0.002
14	493426	63.650279767208	0.001
14	494022	63.700279767208	0.002
14	494049	63.750279767208	0.001
14	494645	63.800279767208	0.002
14	494672	63.850279767208	0.001
14	495246	63.900279767208	0.002
14	495273	63.950279767208	0.001
14	495847	64.000279767208	0.002
14	495874	64.050279767208	0.001
14	496466	64.100279767208	0.002
14	496493	64.150279767208	0.001
14	497085	64.200279767208	0.002
14	497112	64.250279767208	0.001
14	497708	64.300279767208	0.002
14	497735	64.350279767208	0.001
14	498309	64.400279767208	0.002
14	498336	64.450279767208	0.001
14	498932	64.500279767208	0.002
14	498959	64.550279767208	0.001
14	499554	64.600279767208	0.002
14	499574	64.650279767208	0.001
14	499941	64.700279767208	0.002
14	499961	64.750279767208	0.001
14	500325	64.800279767208	0.002
14	500345	64.850279767208	0.001
14	500722	64.900279767208	0.002
14	500742	64.950279767208	0.001
14	501116	65.000279767208	0.002
14	501136	65.050279767208	0.001
14	501520	65.100279767208	0.002
14	501540	65.150279767208	0.001
14	501914	65.200279767208	0.002
14	501934	65.250279767208	0.001
14	502308	65.300279767208	0.002
14	502328	65.350279767208	0.001
14	502702	65.400279767208	0.002
14	502722	65.450279767208	0.001
14	503106	65.500279767208	0.002
14	503126	65.550279767208	0.001
14	503490	65.600279767208	0.002
14	503510	65.650279767208	0.001
14	503904	65.700279767208	0.002
14	503924	65.750279767208	0.001
14	504298	65.800279767208	0.002
14	504318	65.850279767208	0.001
14	504692	65.900279767208	0.002
14	504712	65.950279767208	0.001
14	505079	66.000279767208	0.002
14	505099	66.050279767208	0.001
14	505473	66.100279767208	0.002
14	505493	66.150279767208	0.001
14	505860	66.200279767208	0.002
14	505880	66.250279767208	0.001
14	506264	66.300279767208	0.002
14	506284	66.350279767208	0.001
14	506658	66.400279767208	0.002
14	506678	66.450279767208	0.001
14	507062	66.500279767208	0.002
14	507082	66.550279767208	0.001
14	507449	66.600279767208	0.002
14	507469	66.650279767208	0.001
14	507843	66.700279767208	0.002
14	507863	66.750279767208	0.001
14	508247	66.800279767208	0.002
14	508267	66.850279767208	0.001
14	508634	66.900279767208	0.002
14	508654	66.950279767208	0.001
14	509028	67.000279767208	0.002
14	509048	67.050279767208	0.001
14	509415	67.100279767208	0.002
14	509435	67.150279767208	0.001
14	509809	67.200279767208	0.002
14	509829	67.250279767208	0.001
14	510196	67.300279767208	0.002
14	510216	67.350279767208	0.001
14	510590	67.400279767208	0.002
14	510610	67.450279767208	0.001
14	510984	67.500279767208	0.002
14	511004	67.550279767208	0.001
14	511370	67.600279767208	0.002
14	511383	67.650279767208	0.001
14	511573	67.700279767208	0.002
14	511586	67.750279767208	0.001
14	511783	67.800279767208	0.002
14	511796	67.850279767208	0.001
14	512000	67.900279767208	0.002
14	512013	67.950279767208	0.001
14	512210	68.000279767208	0.002
14	512223	68.050279767208	0.001
14	512420	68.100279767208	0.002
14	512433	68.150279767208	0.001
14	512637	68.200279767208	0.002
14	512650	68.250279767208	0.001
14	512847	68.300279767208	0.002
14	512860	68.350279767208	0.001
14	513057	68.400279767208	0.002
14	513070	68.450279767208	0.001
14	513267	68.500279767208	0.002
14	513280	68.550279767208	0.001
14	513477	68.600279767208	0.002
14	513490	68.650279767208	0.001
14	513687	68.700279767208	0.002
14	513700	68.750279767208	0.001
14	513897	68.800279767208	0.002
14	513910	68.850279767208	0.001
14	514107	68.900279767208	0.002
14	514120	68.950279767208	0.001
14	514317	69.000279767208	0.002
14	514330	69.050279767208	0.001
14	514534	69.100279767208	0.002
14	514547	69.150279767208	0.001
14	514751	69.200279767208	0.002
14	514764	69.250279767208	0.001
14	514961	69.300279767208	0.002
14	514974	69.350279767208	0.001
14	515171	69.400279767208	0.002
14	515184	69.450279767208	0.001
14	515388	69.500279767208	0.002
14	515401	69.550279767208	0.001
14	515598	69.600279767208	0.002
14	515611	69.650279767208	0.001
14	515815	69.700279767208	0.002
14	515828	69.750279767208	0.001
14	516032	69.800279767208	0.002
14	516045	69.850279767208	0.001
14	516249	69.900279767208	0.002
14	516262	69.950279767208	0.001
14	516452	70.000279767208	0.002
14	516465	70.050279767208	0.001
14	516669	70.100279767208	0.002
14	516682	70.150279767208	0.001
14	516879	70.200279767208	0.002
14	516892	70.250279767208	0.001
14	517089	70.300279767208	0.002
14	517102	70.350279767208	0.001
14	517306	70.400279767208	0.002
14	517319	70.450279767208	0.001
14	517515	70.500279767208	0.002
14	517523	70.550279767208	0.001
14	517595	70.600279767208	0.002
14	517603	70.650279767208	0.001
14	517675	70.700279767208	0.002
14	517683	70.750279767208	0.001
14	517755	70.800279767208	0.002
14	517763	70.850279767208	0.001
14	517835	70.900279767208	0.002
14	517843	70.950279767208	0.001
14	517915	71.000279767208	0.002
14	517923	71.050279767208	0.001
14	517995	71.100279767208	0.002
14	518003	71.150279767208	0.001
14	518075	71.200279767208	0.002
14	518083	71.250279767208	0.001
14	518155	71.300279767208	0.002
14	518163	71.350279767208	0.001
14	518235	71.400279767208	0.002
14	518243	71.450279767208	0.001
14	518315	71.500279767208	0.002
14	518323	71.550279767208	0.001
14	518395	71.600279767208	0.002
14	518403	71.650279767208	0.001
14	518475	71.700279767208	0.002
14	518483	71.750279767208	0.001
14	518555	71.800279767208	0.002
14	518563	71.850279767208	0.001
14	518635	71.900279767208	0.002
14	518643	71.950279767208	0.001
14	518715	72.000279767208	0.002
14	518723	72.050279767208	0.001
14	518795	72.100279767208	0.002
14	518803	72.150279767208	0.001
14	518875	72.200279767208	0.002
14	518883	72.250279767208	0.001
14	518955	72.300279767208	0.002
14	518963	72.350279767208	0.001
14	519035	72.400279767208	0.002
14	519043	72.450279767208	0.001
14	519115	72.500279767208	0.002
14	519123	72.550279767208	0.001
14	519195	72.600279767208	0.002
14	519203	72.650279767208	0.001
14	519275	72.700279767208	0.002
14	519283	72.750279767208	0.001
14	519355	72.800279767208	0.002
14	519363	72.850279767208	0.001
14	519435	72.900279767208	0.002
14	519443	72.950279767208	0.001
14	519515	73.000279767208	0.002
14	519523	73.050279767208	0.001
14	519595	73.100279767208	0.002
14	519603	73.150279767208	0.001
14	519675	73.200279767208	0.002
14	519683	73.250279767208	0.001
14	519755	73.300279767208	0.002
14	519763	73.350279767208	0.001
14	519835	73.400279767208	0.002
14	519843	73.450279767208	0.001
14	519915	73.500279767208	0.002
14	519923	73.550279767208	0.001
14	519994	73.600279767208	0.002
14	519995	73.650279767208	0.001
14	519996	73.700279767208	0.002
14	519997	73.750279767208	0.001
14	519998	73.800279767208	0.002
14	519999	73.850279767208	0.001
14	520000	73.900279767208	0.002
14	520001	73.950279767208	0.001
14	520002	74.000279767208	0.002
14	520003	74.050279767208	0.001
14	520004	74.100279767208	0.002
14	520005	74.150279767208	0.001
14	520006	74.200279767208	0.002
14	520007	74.250279767208	0.001
14	520008	74.300279767208	0.002
14	520009	74.350279767208	0.001
14	520010	74.400279767208	0.002
14	520011	74.450279767208	0.001
14	520012	74.500279767208	0.002
14	520013	74.550279767208	0.001
14	520014	74.600279767208	0.002
14	520015	74.650279767208	0.001
14	520016	74.700279767208	0.002
14	520017	74.750279767208	0.001
14	520018	74.800279767208	0.002
14	520019	74.850279767208	0.001
14	520020	74.900279767208	0.002
14	520021	74.950279767208	0.001
14	520022	75.000279767208	0.002
14	520023	75.050279767208	0.001
14	520024	75.100279767208	0.002
14	520025	75.150279767208	0.001
14	520026	75.200279767208	0.002
14	520027	75.250279767208	0.001
14	520028	75.300279767208	0.002
14	520029	75.350279767208	0.001
14	520030	75.400279767208	0.002
14	520031	75.450279767208	0.001
14	520032	75.500279767208	0.002
14	520033	75.550279767208	0.001
14	520034	75.600279767208	0.002
14	520035	75.650279767208	0.001
14	520036	75.700279767208	0.002
14	520037	75.750279767208	0.001
14	520038	75.800279767208	0.002
14	520039	75.850279767208	0.001
14	520040	75.900279767208	0.002
14	520041	75.950279767208	0.001
