version 2
run VoIP-30ms_280B-2-20160923-14:12:45-14653
attr configname VoIP-30ms_280B
attr datetime 20160923-14:12:45
attr experiment VoIP-30ms_280B
attr inifile omnetpp.ini
attr iterationvars ""
attr iterationvars2 $repetition=2
attr measurement ""
attr network SymScenerio
attr processid 14653
attr repetition 2
attr replication #2
attr resultdir results
attr runnumber 2
attr seedset 2
param **.coreDebug false
param **.debug false
param *.**.nic.mac1609_4.bitrate 18Mbps
param *.**.nic.mac1609_4.txPower 20mW
param *.**.nic.mac1609_4.useServiceChannel true
param *.**.nic.phy80211p.analogueModels "xmldoc(\"config.xml\")"
param *.**.nic.phy80211p.decider "xmldoc(\"config.xml\")"
param *.**.nic.phy80211p.sensitivity -89dBm
param *.**.nic.phy80211p.thermalNoise -110dBm
param *.**.nic.phy80211p.usePropagationDelay true
param *.**.nic.phy80211p.useThermalNoise true
param *.annotations.draw false
param *.connectionManager.alpha 2.0
param *.connectionManager.carrierFrequency "5.890e9 Hz"
param *.connectionManager.pMax 20mW
param *.connectionManager.sat -89dBm
param *.connectionManager.sendDirect true
param *.manager.autoShutdown true
param *.manager.host "\"localhost\""
param *.manager.launchConfig "xmldoc(\"map.launchd.xml\")"
param *.manager.margin 25
param *.manager.moduleDisplayString "\"\""
param *.manager.moduleName "\"node\""
param *.manager.moduleType "\"symulacja.veins.nodes.Car\""
param *.manager.port 9999
param *.manager.updateInterval 0.1s
param *.node[*].appl.beaconInterval 1s
param *.node[*].appl.beaconPriority 3
param *.node[*].appl.dataOnSch false
param *.node[*].appl.dataPriority 2
param *.node[*].appl.debug false
param *.node[*].appl.maxOffset 0.005s
param *.node[*].appl.sendBeacons false
param *.node[*].appl.sendData true
param *.node[*].appl.sendVoIP true
param *.node[*].appl.voipInterval 0.030s
param *.node[*].appl.voipLengthBits 2240bits
param *.node[*].appl.voipOnSch true
param *.node[*].appl.voipPriority 3
param *.node[*].applType "\"Sym11p\""
param *.node[*].veinsmobility.x 0
param *.node[*].veinsmobility.y 0
param *.node[*].veinsmobility.z 1.895
param *.node[*].veinsmobilityType "\"symulacja.veins.modules.mobility.traci.TraCIMobility\""
param *.playgroundSizeX 9000m
param *.playgroundSizeY 9000m
param *.playgroundSizeZ 50m
param *.rsu[*].appl.beaconInterval 1s
param *.rsu[*].appl.beaconPriority 3
param *.rsu[*].appl.dataOnSch false
param *.rsu[*].appl.dataPriority 2
param *.rsu[*].appl.debug false
param *.rsu[*].appl.headerLength "256 bit"
param *.rsu[*].appl.maxOffset 0.005s
param *.rsu[*].appl.sendBeacons false
param *.rsu[*].appl.sendData false
param *.rsu[*].appl.sendVoIP false
param *.rsu[*].applType "\"SymRSU11p\""
param *.rsu[0].mobility.x 2160
param *.rsu[0].mobility.y 3100
param *.rsu[0].mobility.z 3
param *.world.use2D false
param *.world.useTorus false

vector 14  SymScenerio.rsu[0].nic.mac1609_4  "Interwały kanałów"  ETV
vector 23  SymScenerio.node[0].veinsmobility  posx  ETV
vector 24  SymScenerio.node[0].veinsmobility  posy  ETV
vector 22  SymScenerio.node[0].nic.mac1609_4  "Interwały kanałów"  ETV
vector 25  SymScenerio.node[0].veinsmobility  speed  ETV
vector 26  SymScenerio.node[0].veinsmobility  acceleration  ETV
vector 27  SymScenerio.node[0].veinsmobility  co2emission  ETV
vector 15  SymScenerio.node[0].appl  "TX Packets"  ETV
vector 16  SymScenerio.node[0].appl  "TX Total"  ETV
vector 17  SymScenerio.node[0].appl  Pakietyzacja  ETV
vector 5  SymScenerio.rsu[0].appl  nodeALL:vector  ETV
attr source  nodeALL
attr title  "Opoznienia ALL, vector"
vector 9  SymScenerio.rsu[0].appl  "RX Packet"  ETV
vector 0  SymScenerio.rsu[0].appl  node0:vector  ETV
attr source  node0
attr title  "Opoznienia node0, vector"
vector 36  SymScenerio.node[1].veinsmobility  posx  ETV
vector 37  SymScenerio.node[1].veinsmobility  posy  ETV
vector 35  SymScenerio.node[1].nic.mac1609_4  "Interwały kanałów"  ETV
vector 28  SymScenerio.node[1].appl  "TX Packets"  ETV
vector 29  SymScenerio.node[1].appl  "TX Total"  ETV
vector 30  SymScenerio.node[1].appl  Pakietyzacja  ETV
vector 1  SymScenerio.rsu[0].appl  node1:vector  ETV
attr source  node1
attr title  "Opoznienia node1, vector"
vector 38  SymScenerio.node[1].veinsmobility  speed  ETV
vector 39  SymScenerio.node[1].veinsmobility  acceleration  ETV
vector 40  SymScenerio.node[1].veinsmobility  co2emission  ETV
vector 49  SymScenerio.node[2].veinsmobility  posx  ETV
vector 50  SymScenerio.node[2].veinsmobility  posy  ETV
vector 48  SymScenerio.node[2].nic.mac1609_4  "Interwały kanałów"  ETV
vector 51  SymScenerio.node[2].veinsmobility  speed  ETV
vector 52  SymScenerio.node[2].veinsmobility  acceleration  ETV
vector 53  SymScenerio.node[2].veinsmobility  co2emission  ETV
vector 41  SymScenerio.node[2].appl  "TX Packets"  ETV
vector 42  SymScenerio.node[2].appl  "TX Total"  ETV
vector 43  SymScenerio.node[2].appl  Pakietyzacja  ETV
vector 2  SymScenerio.rsu[0].appl  node2:vector  ETV
attr source  node2
attr title  "Opoznienia node2, vector"
vector 62  SymScenerio.node[3].veinsmobility  posx  ETV
vector 63  SymScenerio.node[3].veinsmobility  posy  ETV
vector 61  SymScenerio.node[3].nic.mac1609_4  "Interwały kanałów"  ETV
vector 64  SymScenerio.node[3].veinsmobility  speed  ETV
vector 65  SymScenerio.node[3].veinsmobility  acceleration  ETV
vector 66  SymScenerio.node[3].veinsmobility  co2emission  ETV
vector 54  SymScenerio.node[3].appl  "TX Packets"  ETV
vector 55  SymScenerio.node[3].appl  "TX Total"  ETV
vector 56  SymScenerio.node[3].appl  Pakietyzacja  ETV
vector 3  SymScenerio.rsu[0].appl  node3:vector  ETV
attr source  node3
attr title  "Opoznienia node3, vector"
vector 75  SymScenerio.node[4].veinsmobility  posx  ETV
vector 76  SymScenerio.node[4].veinsmobility  posy  ETV
vector 74  SymScenerio.node[4].nic.mac1609_4  "Interwały kanałów"  ETV
vector 77  SymScenerio.node[4].veinsmobility  speed  ETV
vector 78  SymScenerio.node[4].veinsmobility  acceleration  ETV
vector 79  SymScenerio.node[4].veinsmobility  co2emission  ETV
vector 67  SymScenerio.node[4].appl  "TX Packets"  ETV
vector 68  SymScenerio.node[4].appl  "TX Total"  ETV
vector 69  SymScenerio.node[4].appl  Pakietyzacja  ETV
vector 4  SymScenerio.rsu[0].appl  node4:vector  ETV
attr source  node4
attr title  "Opoznienia node4, vector"
17	25	0.540183900781	1.002
17	42	0.570183900781	1.002
17	59	0.600183900781	1.002
17	62	0.630183900781	1.002
17	92	0.660183900781	1.002
17	107	0.690183900781	1.002
17	125	0.720183900781	1.002
17	128	0.750183900781	1.002
17	157	0.780183900781	1.002
17	175	0.810183900781	1.002
17	177	0.840183900781	1.002
17	207	0.870183900781	1.002
17	224	0.900183900781	1.002
17	227	0.930183900781	1.002
17	257	0.960183900781	1.002
17	272	0.990183900781	1.002
17	290	1.020183900781	1.002
17	293	1.050183900781	1.002
17	322	1.080183900781	1.002
17	340	1.110183900781	1.002
17	342	1.140183900781	1.002
17	372	1.170183900781	1.002
17	389	1.200183900781	1.002
17	392	1.230183900781	1.002
17	422	1.260183900781	1.002
17	437	1.290183900781	1.002
17	455	1.320183900781	1.002
17	458	1.350183900781	1.002
17	487	1.380183900781	1.002
17	505	1.410183900781	1.002
17	507	1.440183900781	1.002
17	537	1.470183900781	1.002
17	554	1.500183900781	1.002
17	557	1.530183900781	1.002
17	587	1.560183900781	1.002
17	602	1.590183900781	1.002
17	620	1.620183900781	1.002
17	623	1.650183900781	1.002
17	652	1.680183900781	1.002
17	670	1.710183900781	1.002
17	672	1.740183900781	1.002
17	702	1.770183900781	1.002
17	719	1.800183900781	1.002
17	722	1.830183900781	1.002
17	752	1.860183900781	1.002
17	767	1.890183900781	1.002
17	785	1.920183900781	1.002
17	788	1.950183900781	1.002
17	817	1.980183900781	1.002
17	835	2.010183900781	1.002
17	837	2.040183900781	1.002
17	867	2.070183900781	1.002
17	884	2.100183900781	1.002
17	887	2.130183900781	1.002
17	917	2.160183900781	1.002
17	932	2.190183900781	1.002
17	950	2.220183900781	1.002
17	953	2.250183900781	1.002
17	982	2.280183900781	1.002
17	1000	2.310183900781	1.002
17	1002	2.340183900781	1.002
17	1032	2.370183900781	1.002
17	1049	2.400183900781	1.002
17	1052	2.430183900781	1.002
17	1082	2.460183900781	1.002
17	1097	2.490183900781	1.002
17	1115	2.520183900781	1.002
17	1118	2.550183900781	1.002
17	1147	2.580183900781	1.002
17	1165	2.610183900781	1.002
17	1167	2.640183900781	1.002
17	1197	2.670183900781	1.002
17	1214	2.700183900781	1.002
17	1217	2.730183900781	1.002
17	1247	2.760183900781	1.002
17	1262	2.790183900781	1.002
17	1280	2.820183900781	1.002
17	1283	2.850183900781	1.002
17	1312	2.880183900781	1.002
17	1330	2.910183900781	1.002
17	1332	2.940183900781	1.002
17	1362	2.970183900781	1.002
17	1379	3.000183900781	1.002
17	1382	3.030183900781	1.002
17	1412	3.060183900781	1.002
17	1427	3.090183900781	1.002
17	1445	3.120183900781	1.002
17	1448	3.150183900781	1.002
17	1511	3.180183900781	1.002
17	1538	3.210183900781	1.002
17	1542	3.240183900781	1.002
17	1644	3.270183900781	1.002
17	1688	3.300183900781	1.002
17	1694	3.330183900781	1.002
17	1777	3.360183900781	1.002
17	1819	3.390183900781	1.002
17	1846	3.420183900781	1.002
17	1851	3.450183900781	1.002
17	1952	3.480183900781	1.002
17	1979	3.510183900781	1.002
17	1983	3.540183900781	1.002
17	2078	3.570183900781	1.002
17	2122	3.600183900781	1.002
17	2128	3.630183900781	1.002
17	2204	3.660183900781	1.002
17	2246	3.690183900781	1.002
17	2273	3.720183900781	1.002
17	2278	3.750183900781	1.002
17	2379	3.780183900781	1.002
17	2406	3.810183900781	1.002
17	2410	3.840183900781	1.002
17	2505	3.870183900781	1.002
17	2549	3.900183900781	1.002
17	2555	3.930183900781	1.002
17	2638	3.960183900781	1.002
17	2680	3.990183900781	1.002
17	2707	4.020183900781	1.002
17	2712	4.050183900781	1.002
17	2813	4.080183900781	1.002
17	2840	4.110183900781	1.002
17	2844	4.140183900781	1.002
17	2946	4.170183900781	1.002
17	2990	4.200183900781	1.002
17	2996	4.230183900781	1.002
17	3072	4.260183900781	1.002
17	3114	4.290183900781	1.002
17	3141	4.320183900781	1.002
17	3146	4.350183900781	1.002
17	3247	4.380183900781	1.002
17	3274	4.410183900781	1.002
17	3278	4.440183900781	1.002
17	3380	4.470183900781	1.002
17	3424	4.500183900781	1.002
17	3430	4.530183900781	1.002
17	3513	4.560183900781	1.002
17	3555	4.590183900781	1.002
17	3582	4.620183900781	1.002
17	3587	4.650183900781	1.002
17	3688	4.680183900781	1.002
17	3715	4.710183900781	1.002
17	3719	4.740183900781	1.002
17	3821	4.770183900781	1.002
17	3865	4.800183900781	1.002
17	3871	4.830183900781	1.002
17	3947	4.860183900781	1.002
17	3989	4.890183900781	1.002
17	4016	4.920183900781	1.002
17	4021	4.950183900781	1.002
17	4122	4.980183900781	1.002
17	4149	5.010183900781	1.002
17	4153	5.040183900781	1.002
17	4255	5.070183900781	1.002
17	4299	5.100183900781	1.002
17	4305	5.130183900781	1.002
17	4388	5.160183900781	1.002
17	4430	5.190183900781	1.002
17	4457	5.220183900781	1.002
17	4462	5.250183900781	1.002
17	4563	5.280183900781	1.002
17	4590	5.310183900781	1.002
17	4594	5.340183900781	1.002
17	4696	5.370183900781	1.002
17	4740	5.400183900781	1.002
17	4746	5.430183900781	1.002
17	4822	5.460183900781	1.002
17	4864	5.490183900781	1.002
17	4891	5.520183900781	1.002
17	4896	5.550183900781	1.002
17	4990	5.580183900781	1.002
17	5017	5.610183900781	1.002
17	5021	5.640183900781	1.002
17	5123	5.670183900781	1.002
17	5167	5.700183900781	1.002
17	5173	5.730183900781	1.002
17	5256	5.760183900781	1.002
17	5298	5.790183900781	1.002
17	5325	5.820183900781	1.002
17	5330	5.850183900781	1.002
17	5431	5.880183900781	1.002
17	5458	5.910183900781	1.002
17	5462	5.940183900781	1.002
17	5557	5.970183900781	1.002
17	5601	6.000183900781	1.002
17	5607	6.030183900781	1.002
17	5690	6.060183900781	1.002
17	5732	6.090183900781	1.002
17	5759	6.120183900781	1.002
17	5765	6.150183900781	1.002
17	5896	6.180183900781	1.002
17	5930	6.210183900781	1.002
17	5934	6.240183900781	1.002
17	6057	6.270183900781	1.002
17	6114	6.300183900781	1.002
17	6120	6.330183900781	1.002
17	6228	6.360183900781	1.002
17	6282	6.390183900781	1.002
17	6316	6.420183900781	1.002
17	6322	6.450183900781	1.002
17	6443	6.480183900781	1.002
17	6477	6.510183900781	1.002
17	6481	6.540183900781	1.002
17	6604	6.570183900781	1.002
17	6661	6.600183900781	1.002
17	6667	6.630183900781	1.002
17	6775	6.660183900781	1.002
17	6829	6.690183900781	1.002
17	6863	6.720183900781	1.002
17	6869	6.750183900781	1.002
17	6990	6.780183900781	1.002
17	7024	6.810183900781	1.002
17	7028	6.840183900781	1.002
17	7188	6.870183900781	1.002
17	7272	6.900183900781	1.002
17	7280	6.930183900781	1.002
17	7413	6.960183900781	1.002
17	7494	6.990183900781	1.002
17	7530	7.020183900781	1.002
17	7538	7.050183900781	1.002
17	7746	7.080183900781	1.002
17	7782	7.110183900781	1.002
17	7788	7.140183900781	1.002
17	7988	7.170183900781	1.002
17	8072	7.200183900781	1.002
17	8080	7.230183900781	1.002
17	8220	7.260183900781	1.002
17	8301	7.290183900781	1.002
17	8337	7.320183900781	1.002
17	8345	7.350183900781	1.002
17	8553	7.380183900781	1.002
17	8589	7.410183900781	1.002
17	8595	7.440183900781	1.002
17	8805	7.470183900781	1.002
17	8889	7.500183900781	1.002
17	8897	7.530183900781	1.002
17	9040	7.560183900781	1.002
17	9121	7.590183900781	1.002
17	9157	7.620183900781	1.002
17	9165	7.650183900781	1.002
17	9363	7.680183900781	1.002
17	9399	7.710183900781	1.002
17	9405	7.740183900781	1.002
17	9598	7.770183900781	1.002
17	9682	7.800183900781	1.002
17	9690	7.830183900781	1.002
17	9850	7.860183900781	1.002
17	9931	7.890183900781	1.002
17	9967	7.920183900781	1.002
17	9975	7.950183900781	1.002
17	10166	7.980183900781	1.002
17	10202	8.010183900781	1.002
17	10208	8.040183900781	1.002
17	10408	8.070183900781	1.002
17	10492	8.100183900781	1.002
17	10500	8.130183900781	1.002
17	10650	8.160183900781	1.002
17	10731	8.190183900781	1.002
17	10767	8.220183900781	1.002
17	10775	8.250183900781	1.002
17	10983	8.280183900781	1.002
17	11019	8.310183900781	1.002
17	11025	8.340183900781	1.002
17	11235	8.370183900781	1.002
17	11319	8.400183900781	1.002
17	11327	8.430183900781	1.002
17	11477	8.460183900781	1.002
17	11558	8.490183900781	1.002
17	11594	8.520183900781	1.002
17	11602	8.550183900781	1.002
17	11810	8.580183900781	1.002
17	11846	8.610183900781	1.002
17	11852	8.640183900781	1.002
17	12052	8.670183900781	1.002
17	12136	8.700183900781	1.002
17	12144	8.730183900781	1.002
17	12294	8.760183900781	1.002
17	12375	8.790183900781	1.002
17	12411	8.820183900781	1.002
17	12419	8.850183900781	1.002
17	12610	8.880183900781	1.002
17	12646	8.910183900781	1.002
17	12652	8.940183900781	1.002
17	12852	8.970183900781	1.002
17	12936	9.000183900781	1.002
17	12944	9.030183900781	1.002
17	13094	9.060183900781	1.002
17	13175	9.090183900781	1.002
17	13211	9.120183900781	1.002
17	13220	9.150183900781	1.002
17	13454	9.180183900781	1.002
17	13497	9.210183900781	1.002
17	13503	9.240183900781	1.002
17	13762	9.270183900781	1.002
17	13865	9.300183900781	1.002
17	13873	9.330183900781	1.002
17	14058	9.360183900781	1.002
17	14157	9.390183900781	1.002
17	14200	9.420183900781	1.002
17	14209	9.450183900781	1.002
17	14453	9.480183900781	1.002
17	14496	9.510183900781	1.002
17	14502	9.540183900781	1.002
17	14748	9.570183900781	1.002
17	14851	9.600183900781	1.002
17	14859	9.630183900781	1.002
17	15056	9.660183900781	1.002
17	15155	9.690183900781	1.002
17	15198	9.720183900781	1.002
17	15207	9.750183900781	1.002
17	15450	9.780183900781	1.002
17	15493	9.810183900781	1.002
17	15499	9.840183900781	1.002
17	15746	9.870183900781	1.002
17	15849	9.900183900781	1.002
17	15857	9.930183900781	1.002
17	16054	9.960183900781	1.002
17	16153	9.990183900781	1.002
17	16196	10.020183900781	1.002
17	16205	10.050183900781	1.002
17	16481	10.080183900781	1.002
17	16526	10.110183900781	1.002
17	16534	10.140183900781	1.002
17	16849	10.170183900781	1.002
17	16985	10.200183900781	1.002
17	16995	10.230183900781	1.002
17	17243	10.260183900781	1.002
17	17375	10.290183900781	1.002
17	17420	10.320183900781	1.002
17	17431	10.350183900781	1.002
17	17747	10.380183900781	1.002
17	17792	10.410183900781	1.002
17	17800	10.440183900781	1.002
17	18128	10.470183900781	1.002
17	18264	10.500183900781	1.002
17	18274	10.530183900781	1.002
17	18522	10.560183900781	1.002
17	18654	10.590183900781	1.002
17	18699	10.620183900781	1.002
17	18710	10.650183900781	1.002
17	19030	10.680183900781	1.002
17	19075	10.710183900781	1.002
17	19083	10.740183900781	1.002
17	19393	10.770183900781	1.002
17	19529	10.800183900781	1.002
17	19539	10.830183900781	1.002
17	19800	10.860183900781	1.002
17	19932	10.890183900781	1.002
17	19977	10.920183900781	1.002
17	19988	10.950183900781	1.002
17	20304	10.980183900781	1.002
17	20349	11.010183900781	1.002
17	20357	11.040183900781	1.002
17	20676	11.070183900781	1.002
17	20812	11.100183900781	1.002
17	20822	11.130183900781	1.002
17	21070	11.160183900781	1.002
17	21202	11.190183900781	1.002
17	21247	11.220183900781	1.002
17	21258	11.250183900781	1.002
17	21583	11.280183900781	1.002
17	21628	11.310183900781	1.002
17	21636	11.340183900781	1.002
17	21977	11.370183900781	1.002
17	22113	11.400183900781	1.002
17	22123	11.430183900781	1.002
17	22371	11.460183900781	1.002
17	22503	11.490183900781	1.002
17	22548	11.520183900781	1.002
17	22559	11.550183900781	1.002
17	22888	11.580183900781	1.002
17	22933	11.610183900781	1.002
17	22941	11.640183900781	1.002
17	23269	11.670183900781	1.002
17	23405	11.700183900781	1.002
17	23415	11.730183900781	1.002
17	23663	11.760183900781	1.002
17	23795	11.790183900781	1.002
17	23840	11.820183900781	1.002
17	23851	11.850183900781	1.002
17	24180	11.880183900781	1.002
17	24225	11.910183900781	1.002
17	24233	11.940183900781	1.002
17	24548	11.970183900781	1.002
17	24684	12.000183900781	1.002
17	24694	12.030183900781	1.002
17	24929	12.060183900781	1.002
17	25061	12.090183900781	1.002
17	25106	12.120183900781	1.002
17	25117	12.150183900781	1.002
17	25503	12.180183900781	1.002
17	25555	12.210183900781	1.002
17	25563	12.240183900781	1.002
17	25952	12.270183900781	1.002
17	26112	12.300183900781	1.002
17	26123	12.330183900781	1.002
17	26433	12.360183900781	1.002
17	26589	12.390183900781	1.002
17	26641	12.420183900781	1.002
17	26652	12.450183900781	1.002
17	27043	12.480183900781	1.002
17	27095	12.510183900781	1.002
17	27103	12.540183900781	1.002
17	27493	12.570183900781	1.002
17	27653	12.600183900781	1.002
17	27664	12.630183900781	1.002
17	27981	12.660183900781	1.002
17	28176	12.690183900781	1.002
17	28230	12.720183900781	1.002
17	28243	12.750183900781	1.002
17	28699	12.780183900781	1.002
17	28790	12.810183900781	1.002
17	28800	12.840183900781	1.002
17	29239	12.870183900781	1.002
17	29438	12.900183900781	1.002
17	29451	12.930183900781	1.002
17	29789	12.960183900781	1.002
17	29984	12.990183900781	1.002
17	30038	13.020183900781	1.002
17	30051	13.050183900781	1.002
17	30539	13.080183900781	1.002
17	30630	13.110183900781	1.002
17	30640	13.140183900781	1.002
17	31105	13.170183900781	1.002
17	31304	13.200183900781	1.002
17	31317	13.230183900781	1.002
17	31671	13.260183900781	1.002
17	31866	13.290183900781	1.002
17	31920	13.320183900781	1.002
17	31933	13.350183900781	1.002
17	32417	13.380183900781	1.002
17	32508	13.410183900781	1.002
17	32518	13.440183900781	1.002
17	32956	13.470183900781	1.002
17	33155	13.500183900781	1.002
17	33168	13.530183900781	1.002
17	33522	13.560183900781	1.002
17	33717	13.590183900781	1.002
17	33771	13.620183900781	1.002
17	33784	13.650183900781	1.002
17	34234	13.680183900781	1.002
17	34325	13.710183900781	1.002
17	34335	13.740183900781	1.002
17	34784	13.770183900781	1.002
17	34983	13.800183900781	1.002
17	34996	13.830183900781	1.002
17	35334	13.860183900781	1.002
17	35529	13.890183900781	1.002
17	35583	13.920183900781	1.002
17	35596	13.950183900781	1.002
17	36089	13.980183900781	1.002
17	36180	14.010183900781	1.002
17	36190	14.040183900781	1.002
17	36656	14.070183900781	1.002
17	36855	14.100183900781	1.002
17	36868	14.130183900781	1.002
17	37211	14.160183900781	1.002
17	37406	14.190183900781	1.002
17	37460	14.220183900781	1.002
17	37473	14.250183900781	1.002
17	37961	14.280183900781	1.002
17	38052	14.310183900781	1.002
17	38062	14.340183900781	1.002
17	38532	14.370183900781	1.002
17	38731	14.400183900781	1.002
17	38744	14.430183900781	1.002
17	39098	14.460183900781	1.002
17	39293	14.490183900781	1.002
17	39347	14.520183900781	1.002
17	39360	14.550183900781	1.002
17	39827	14.580183900781	1.002
17	39918	14.610183900781	1.002
17	39928	14.640183900781	1.002
17	40366	14.670183900781	1.002
17	40565	14.700183900781	1.002
17	40578	14.730183900781	1.002
17	40921	14.760183900781	1.002
17	41116	14.790183900781	1.002
17	41170	14.820183900781	1.002
17	41183	14.850183900781	1.002
17	41666	14.880183900781	1.002
17	41757	14.910183900781	1.002
17	41767	14.940183900781	1.002
17	42205	14.970183900781	1.002
17	42404	15.000183900781	1.002
17	42417	15.030183900781	1.002
17	42755	15.060183900781	1.002
17	42950	15.090183900781	1.002
17	43004	15.120183900781	1.002
17	43017	15.150183900781	1.002
17	43505	15.180183900781	1.002
17	43596	15.210183900781	1.002
17	43606	15.240183900781	1.002
17	44044	15.270183900781	1.002
17	44243	15.300183900781	1.002
17	44256	15.330183900781	1.002
17	44610	15.360183900781	1.002
17	44805	15.390183900781	1.002
17	44859	15.420183900781	1.002
17	44872	15.450183900781	1.002
17	45355	15.480183900781	1.002
17	45446	15.510183900781	1.002
17	45456	15.540183900781	1.002
17	45905	15.570183900781	1.002
17	46104	15.600183900781	1.002
17	46117	15.630183900781	1.002
17	46444	15.660183900781	1.002
17	46639	15.690183900781	1.002
17	46693	15.720183900781	1.002
17	46706	15.750183900781	1.002
17	47167	15.780183900781	1.002
17	47258	15.810183900781	1.002
17	47268	15.840183900781	1.002
17	47733	15.870183900781	1.002
17	47932	15.900183900781	1.002
17	47945	15.930183900781	1.002
17	48288	15.960183900781	1.002
17	48483	15.990183900781	1.002
17	48537	16.020183900781	1.002
17	48550	16.050183900781	1.002
17	49033	16.080183900781	1.002
17	49124	16.110183900781	1.002
17	49134	16.140183900781	1.002
17	49567	16.170183900781	1.002
17	49766	16.200183900781	1.002
17	49779	16.230183900781	1.002
17	50149	16.260183900781	1.002
17	50344	16.290183900781	1.002
17	50398	16.320183900781	1.002
17	50411	16.350183900781	1.002
17	50910	16.380183900781	1.002
17	51001	16.410183900781	1.002
17	51011	16.440183900781	1.002
17	51459	16.470183900781	1.002
17	51658	16.500183900781	1.002
17	51671	16.530183900781	1.002
17	51998	16.560183900781	1.002
17	52193	16.590183900781	1.002
17	52247	16.620183900781	1.002
17	52260	16.650183900781	1.002
17	52743	16.680183900781	1.002
17	52834	16.710183900781	1.002
17	52844	16.740183900781	1.002
17	53282	16.770183900781	1.002
17	53481	16.800183900781	1.002
17	53494	16.830183900781	1.002
17	53848	16.860183900781	1.002
17	54043	16.890183900781	1.002
17	54097	16.920183900781	1.002
17	54110	16.950183900781	1.002
17	54577	16.980183900781	1.002
17	54668	17.010183900781	1.002
17	54678	17.040183900781	1.002
17	55116	17.070183900781	1.002
17	55315	17.100183900781	1.002
17	55328	17.130183900781	1.002
17	55687	17.160183900781	1.002
17	55882	17.190183900781	1.002
17	55936	17.220183900781	1.002
17	55949	17.250183900781	1.002
17	56421	17.280183900781	1.002
17	56512	17.310183900781	1.002
17	56522	17.340183900781	1.002
17	56971	17.370183900781	1.002
17	57170	17.400183900781	1.002
17	57183	17.430183900781	1.002
17	57510	17.460183900781	1.002
17	57705	17.490183900781	1.002
17	57759	17.520183900781	1.002
17	57772	17.550183900781	1.002
17	58276	17.580183900781	1.002
17	58367	17.610183900781	1.002
17	58377	17.640183900781	1.002
17	58804	17.670183900781	1.002
17	59003	17.700183900781	1.002
17	59016	17.730183900781	1.002
17	59370	17.760183900781	1.002
17	59565	17.790183900781	1.002
17	59619	17.820183900781	1.002
17	59632	17.850183900781	1.002
17	60104	17.880183900781	1.002
17	60195	17.910183900781	1.002
17	60205	17.940183900781	1.002
17	60643	17.970183900781	1.002
17	60842	18.000183900781	1.002
17	60855	18.030183900781	1.002
17	61193	18.060183900781	1.002
17	61388	18.090183900781	1.002
17	61442	18.120183900781	1.002
17	61455	18.150183900781	1.002
17	61932	18.180183900781	1.002
17	62023	18.210183900781	1.002
17	62033	18.240183900781	1.002
17	62482	18.270183900781	1.002
17	62681	18.300183900781	1.002
17	62694	18.330183900781	1.002
17	63032	18.360183900781	1.002
17	63227	18.390183900781	1.002
17	63281	18.420183900781	1.002
17	63294	18.450183900781	1.002
17	63766	18.480183900781	1.002
17	63857	18.510183900781	1.002
17	63867	18.540183900781	1.002
17	64321	18.570183900781	1.002
17	64520	18.600183900781	1.002
17	64533	18.630183900781	1.002
17	64876	18.660183900781	1.002
17	65071	18.690183900781	1.002
17	65125	18.720183900781	1.002
17	65138	18.750183900781	1.002
17	65610	18.780183900781	1.002
17	65701	18.810183900781	1.002
17	65711	18.840183900781	1.002
17	66154	18.870183900781	1.002
17	66353	18.900183900781	1.002
17	66366	18.930183900781	1.002
17	66698	18.960183900781	1.002
17	66893	18.990183900781	1.002
17	66947	19.020183900781	1.002
17	66960	19.050183900781	1.002
17	67448	19.080183900781	1.002
17	67539	19.110183900781	1.002
17	67549	19.140183900781	1.002
17	68003	19.170183900781	1.002
17	68202	19.200183900781	1.002
17	68215	19.230183900781	1.002
17	68547	19.260183900781	1.002
17	68742	19.290183900781	1.002
17	68796	19.320183900781	1.002
17	68809	19.350183900781	1.002
17	69292	19.380183900781	1.002
17	69383	19.410183900781	1.002
17	69393	19.440183900781	1.002
17	69847	19.470183900781	1.002
17	70046	19.500183900781	1.002
17	70059	19.530183900781	1.002
17	70413	19.560183900781	1.002
17	70608	19.590183900781	1.002
17	70662	19.620183900781	1.002
17	70675	19.650183900781	1.002
17	71163	19.680183900781	1.002
17	71254	19.710183900781	1.002
17	71264	19.740183900781	1.002
17	71718	19.770183900781	1.002
17	71917	19.800183900781	1.002
17	71930	19.830183900781	1.002
17	72284	19.860183900781	1.002
17	72479	19.890183900781	1.002
17	72533	19.920183900781	1.002
17	72546	19.950183900781	1.002
17	73034	19.980183900781	1.002
17	73125	20.010183900781	1.002
17	73135	20.040183900781	1.002
17	73573	20.070183900781	1.002
17	73772	20.100183900781	1.002
17	73785	20.130183900781	1.002
17	74133	20.160183900781	1.002
17	74328	20.190183900781	1.002
17	74382	20.220183900781	1.002
17	74395	20.250183900781	1.002
17	74878	20.280183900781	1.002
17	74969	20.310183900781	1.002
17	74979	20.340183900781	1.002
17	75433	20.370183900781	1.002
17	75632	20.400183900781	1.002
17	75645	20.430183900781	1.002
17	75977	20.460183900781	1.002
17	76172	20.490183900781	1.002
17	76226	20.520183900781	1.002
17	76239	20.550183900781	1.002
17	76738	20.580183900781	1.002
17	76829	20.610183900781	1.002
17	76839	20.640183900781	1.002
17	77293	20.670183900781	1.002
17	77492	20.700183900781	1.002
17	77505	20.730183900781	1.002
17	77843	20.760183900781	1.002
17	78038	20.790183900781	1.002
17	78092	20.820183900781	1.002
17	78105	20.850183900781	1.002
17	78577	20.880183900781	1.002
17	78668	20.910183900781	1.002
17	78678	20.940183900781	1.002
17	79116	20.970183900781	1.002
17	79315	21.000183900781	1.002
17	79328	21.030183900781	1.002
17	79671	21.060183900781	1.002
17	79866	21.090183900781	1.002
17	79920	21.120183900781	1.002
17	79933	21.150183900781	1.002
17	80394	21.180183900781	1.002
17	80485	21.210183900781	1.002
17	80495	21.240183900781	1.002
17	80938	21.270183900781	1.002
17	81137	21.300183900781	1.002
17	81150	21.330183900781	1.002
17	81477	21.360183900781	1.002
17	81672	21.390183900781	1.002
17	81726	21.420183900781	1.002
17	81739	21.450183900781	1.002
17	82222	21.480183900781	1.002
17	82313	21.510183900781	1.002
17	82323	21.540183900781	1.002
17	82777	21.570183900781	1.002
17	82976	21.600183900781	1.002
17	82989	21.630183900781	1.002
17	83327	21.660183900781	1.002
17	83522	21.690183900781	1.002
17	83576	21.720183900781	1.002
17	83589	21.750183900781	1.002
17	84066	21.780183900781	1.002
17	84157	21.810183900781	1.002
17	84167	21.840183900781	1.002
17	84594	21.870183900781	1.002
17	84793	21.900183900781	1.002
17	84806	21.930183900781	1.002
17	85149	21.960183900781	1.002
17	85344	21.990183900781	1.002
17	85398	22.020183900781	1.002
17	85411	22.050183900781	1.002
17	85899	22.080183900781	1.002
17	85990	22.110183900781	1.002
17	86000	22.140183900781	1.002
17	86449	22.170183900781	1.002
17	86648	22.200183900781	1.002
17	86661	22.230183900781	1.002
17	86993	22.260183900781	1.002
17	87188	22.290183900781	1.002
17	87242	22.320183900781	1.002
17	87255	22.350183900781	1.002
17	87743	22.380183900781	1.002
17	87834	22.410183900781	1.002
17	87844	22.440183900781	1.002
17	88293	22.470183900781	1.002
17	88492	22.500183900781	1.002
17	88505	22.530183900781	1.002
17	88843	22.560183900781	1.002
17	89038	22.590183900781	1.002
17	89092	22.620183900781	1.002
17	89105	22.650183900781	1.002
17	89582	22.680183900781	1.002
17	89673	22.710183900781	1.002
17	89683	22.740183900781	1.002
17	90126	22.770183900781	1.002
17	90325	22.800183900781	1.002
17	90338	22.830183900781	1.002
17	90670	22.860183900781	1.002
17	90865	22.890183900781	1.002
17	90919	22.920183900781	1.002
17	90932	22.950183900781	1.002
17	91404	22.980183900781	1.002
17	91495	23.010183900781	1.002
17	91505	23.040183900781	1.002
17	91959	23.070183900781	1.002
17	92158	23.100183900781	1.002
17	92171	23.130183900781	1.002
17	92509	23.160183900781	1.002
17	92704	23.190183900781	1.002
17	92758	23.220183900781	1.002
17	92771	23.250183900781	1.002
17	93254	23.280183900781	1.002
17	93345	23.310183900781	1.002
17	93355	23.340183900781	1.002
17	93782	23.370183900781	1.002
17	93981	23.400183900781	1.002
17	93994	23.430183900781	1.002
17	94332	23.460183900781	1.002
17	94527	23.490183900781	1.002
17	94581	23.520183900781	1.002
17	94594	23.550183900781	1.002
17	95077	23.580183900781	1.002
17	95168	23.610183900781	1.002
17	95178	23.640183900781	1.002
17	95643	23.670183900781	1.002
17	95842	23.700183900781	1.002
17	95855	23.730183900781	1.002
17	96193	23.760183900781	1.002
17	96388	23.790183900781	1.002
17	96442	23.820183900781	1.002
17	96455	23.850183900781	1.002
17	96922	23.880183900781	1.002
17	97013	23.910183900781	1.002
17	97023	23.940183900781	1.002
17	97461	23.970183900781	1.002
17	97660	24.000183900781	1.002
17	97673	24.030183900781	1.002
17	98016	24.060183900781	1.002
17	98211	24.090183900781	1.002
17	98265	24.120183900781	1.002
17	98278	24.150183900781	1.002
17	98766	24.180183900781	1.002
17	98857	24.210183900781	1.002
17	98867	24.240183900781	1.002
17	99332	24.270183900781	1.002
17	99531	24.300183900781	1.002
17	99544	24.330183900781	1.002
17	99882	24.360183900781	1.002
17	100077	24.390183900781	1.002
17	100131	24.420183900781	1.002
17	100144	24.450183900781	1.002
17	100611	24.480183900781	1.002
17	100702	24.510183900781	1.002
17	100712	24.540183900781	1.002
17	101177	24.570183900781	1.002
17	101376	24.600183900781	1.002
17	101389	24.630183900781	1.002
17	101732	24.660183900781	1.002
17	101927	24.690183900781	1.002
17	101981	24.720183900781	1.002
17	101994	24.750183900781	1.002
17	102482	24.780183900781	1.002
17	102573	24.810183900781	1.002
17	102583	24.840183900781	1.002
17	103016	24.870183900781	1.002
17	103215	24.900183900781	1.002
17	103228	24.930183900781	1.002
17	103598	24.960183900781	1.002
17	103793	24.990183900781	1.002
17	103847	25.020183900781	1.002
17	103860	25.050183900781	1.002
17	104343	25.080183900781	1.002
17	104434	25.110183900781	1.002
17	104444	25.140183900781	1.002
17	104893	25.170183900781	1.002
17	105092	25.200183900781	1.002
17	105105	25.230183900781	1.002
17	105464	25.260183900781	1.002
17	105659	25.290183900781	1.002
17	105713	25.320183900781	1.002
17	105726	25.350183900781	1.002
17	106192	25.380183900781	1.002
17	106283	25.410183900781	1.002
17	106293	25.440183900781	1.002
17	106731	25.470183900781	1.002
17	106930	25.500183900781	1.002
17	106943	25.530183900781	1.002
17	107281	25.560183900781	1.002
17	107476	25.590183900781	1.002
17	107530	25.620183900781	1.002
17	107543	25.650183900781	1.002
17	108004	25.680183900781	1.002
17	108095	25.710183900781	1.002
17	108105	25.740183900781	1.002
17	108532	25.770183900781	1.002
17	108731	25.800183900781	1.002
17	108744	25.830183900781	1.002
17	109087	25.860183900781	1.002
17	109282	25.890183900781	1.002
17	109336	25.920183900781	1.002
17	109349	25.950183900781	1.002
17	109832	25.980183900781	1.002
17	109923	26.010183900781	1.002
17	109933	26.040183900781	1.002
17	110376	26.070183900781	1.002
17	110575	26.100183900781	1.002
17	110588	26.130183900781	1.002
17	110931	26.160183900781	1.002
17	111126	26.190183900781	1.002
17	111180	26.220183900781	1.002
17	111193	26.250183900781	1.002
17	111665	26.280183900781	1.002
17	111756	26.310183900781	1.002
17	111766	26.340183900781	1.002
17	112231	26.370183900781	1.002
17	112430	26.400183900781	1.002
17	112443	26.430183900781	1.002
17	112765	26.460183900781	1.002
17	112960	26.490183900781	1.002
17	113014	26.520183900781	1.002
17	113027	26.550183900781	1.002
17	113504	26.580183900781	1.002
17	113595	26.610183900781	1.002
17	113605	26.640183900781	1.002
17	114054	26.670183900781	1.002
17	114253	26.700183900781	1.002
17	114266	26.730183900781	1.002
17	114620	26.760183900781	1.002
17	114815	26.790183900781	1.002
17	114869	26.820183900781	1.002
17	114882	26.850183900781	1.002
17	115365	26.880183900781	1.002
17	115456	26.910183900781	1.002
17	115466	26.940183900781	1.002
17	115920	26.970183900781	1.002
17	116119	27.000183900781	1.002
17	116132	27.030183900781	1.002
17	116470	27.060183900781	1.002
17	116665	27.090183900781	1.002
17	116719	27.120183900781	1.002
17	116732	27.150183900781	1.002
17	117220	27.180183900781	1.002
17	117311	27.210183900781	1.002
17	117321	27.240183900781	1.002
17	117759	27.270183900781	1.002
17	117958	27.300183900781	1.002
17	117971	27.330183900781	1.002
17	118303	27.360183900781	1.002
17	118498	27.390183900781	1.002
17	118552	27.420183900781	1.002
17	118565	27.450183900781	1.002
17	119053	27.480183900781	1.002
17	119144	27.510183900781	1.002
17	119154	27.540183900781	1.002
17	119597	27.570183900781	1.002
17	119796	27.600183900781	1.002
17	119809	27.630183900781	1.002
17	120163	27.660183900781	1.002
17	120358	27.690183900781	1.002
17	120412	27.720183900781	1.002
17	120425	27.750183900781	1.002
17	120886	27.780183900781	1.002
17	120977	27.810183900781	1.002
17	120987	27.840183900781	1.002
17	121403	27.870183900781	1.002
17	121602	27.900183900781	1.002
17	121615	27.930183900781	1.002
17	121974	27.960183900781	1.002
17	122169	27.990183900781	1.002
17	122223	28.020183900781	1.002
17	122236	28.050183900781	1.002
17	122708	28.080183900781	1.002
17	122799	28.110183900781	1.002
17	122809	28.140183900781	1.002
17	123258	28.170183900781	1.002
17	123457	28.200183900781	1.002
17	123470	28.230183900781	1.002
17	123797	28.260183900781	1.002
17	123992	28.290183900781	1.002
17	124046	28.320183900781	1.002
17	124059	28.350183900781	1.002
17	124542	28.380183900781	1.002
17	124633	28.410183900781	1.002
17	124643	28.440183900781	1.002
17	125081	28.470183900781	1.002
17	125280	28.500183900781	1.002
17	125293	28.530183900781	1.002
17	125652	28.560183900781	1.002
17	125847	28.590183900781	1.002
17	125901	28.620183900781	1.002
17	125914	28.650183900781	1.002
17	126386	28.680183900781	1.002
17	126477	28.710183900781	1.002
17	126487	28.740183900781	1.002
17	126941	28.770183900781	1.002
17	127140	28.800183900781	1.002
17	127153	28.830183900781	1.002
17	127507	28.860183900781	1.002
17	127702	28.890183900781	1.002
17	127756	28.920183900781	1.002
17	127769	28.950183900781	1.002
17	128246	28.980183900781	1.002
17	128337	29.010183900781	1.002
17	128347	29.040183900781	1.002
17	128779	29.070183900781	1.002
17	128978	29.100183900781	1.002
17	128991	29.130183900781	1.002
17	129334	29.160183900781	1.002
17	129529	29.190183900781	1.002
17	129583	29.220183900781	1.002
17	129596	29.250183900781	1.002
17	130063	29.280183900781	1.002
17	130154	29.310183900781	1.002
17	130164	29.340183900781	1.002
17	130607	29.370183900781	1.002
17	130806	29.400183900781	1.002
17	130819	29.430183900781	1.002
17	131178	29.460183900781	1.002
17	131373	29.490183900781	1.002
17	131427	29.520183900781	1.002
17	131440	29.550183900781	1.002
17	131933	29.580183900781	1.002
17	132024	29.610183900781	1.002
17	132034	29.640183900781	1.002
17	132488	29.670183900781	1.002
17	132687	29.700183900781	1.002
17	132700	29.730183900781	1.002
17	133054	29.760183900781	1.002
17	133249	29.790183900781	1.002
17	133303	29.820183900781	1.002
17	133316	29.850183900781	1.002
17	133777	29.880183900781	1.002
17	133868	29.910183900781	1.002
17	133878	29.940183900781	1.002
17	134332	29.970183900781	1.002
17	134531	30.000183900781	1.002
17	134544	30.030183900781	1.002
17	134882	30.060183900781	1.002
17	135077	30.090183900781	1.002
17	135131	30.120183900781	1.002
17	135144	30.150183900781	1.002
17	135600	30.180183900781	1.002
17	135691	30.210183900781	1.002
17	135701	30.240183900781	1.002
17	136150	30.270183900781	1.002
17	136349	30.300183900781	1.002
17	136362	30.330183900781	1.002
17	136689	30.360183900781	1.002
17	136884	30.390183900781	1.002
17	136938	30.420183900781	1.002
17	136951	30.450183900781	1.002
17	137439	30.480183900781	1.002
17	137530	30.510183900781	1.002
17	137540	30.540183900781	1.002
17	137978	30.570183900781	1.002
17	138177	30.600183900781	1.002
17	138190	30.630183900781	1.002
17	138533	30.660183900781	1.002
17	138728	30.690183900781	1.002
17	138782	30.720183900781	1.002
17	138795	30.750183900781	1.002
17	139294	30.780183900781	1.002
17	139385	30.810183900781	1.002
17	139395	30.840183900781	1.002
17	139833	30.870183900781	1.002
17	140032	30.900183900781	1.002
17	140045	30.930183900781	1.002
17	140399	30.960183900781	1.002
17	140594	30.990183900781	1.002
17	140648	31.020183900781	1.002
17	140661	31.050183900781	1.002
17	141165	31.080183900781	1.002
17	141256	31.110183900781	1.002
17	141266	31.140183900781	1.002
17	141704	31.170183900781	1.002
17	141903	31.200183900781	1.002
17	141916	31.230183900781	1.002
17	142259	31.260183900781	1.002
17	142454	31.290183900781	1.002
17	142508	31.320183900781	1.002
17	142521	31.350183900781	1.002
17	143004	31.380183900781	1.002
17	143095	31.410183900781	1.002
17	143105	31.440183900781	1.002
17	143554	31.470183900781	1.002
17	143753	31.500183900781	1.002
17	143766	31.530183900781	1.002
17	144109	31.560183900781	1.002
17	144304	31.590183900781	1.002
17	144358	31.620183900781	1.002
17	144371	31.650183900781	1.002
17	144843	31.680183900781	1.002
17	144934	31.710183900781	1.002
17	144944	31.740183900781	1.002
17	145387	31.770183900781	1.002
17	145586	31.800183900781	1.002
17	145599	31.830183900781	1.002
17	145942	31.860183900781	1.002
17	146137	31.890183900781	1.002
17	146191	31.920183900781	1.002
17	146204	31.950183900781	1.002
17	146676	31.980183900781	1.002
17	146767	32.010183900781	1.002
17	146777	32.040183900781	1.002
17	147231	32.070183900781	1.002
17	147430	32.100183900781	1.002
17	147443	32.130183900781	1.002
17	147797	32.160183900781	1.002
17	147992	32.190183900781	1.002
17	148046	32.220183900781	1.002
17	148059	32.250183900781	1.002
17	148531	32.280183900781	1.002
17	148622	32.310183900781	1.002
17	148632	32.340183900781	1.002
17	149070	32.370183900781	1.002
17	149269	32.400183900781	1.002
17	149282	32.430183900781	1.002
17	149625	32.460183900781	1.002
17	149820	32.490183900781	1.002
17	149874	32.520183900781	1.002
17	149887	32.550183900781	1.002
17	150386	32.580183900781	1.002
17	150477	32.610183900781	1.002
17	150487	32.640183900781	1.002
17	150941	32.670183900781	1.002
17	151140	32.700183900781	1.002
17	151153	32.730183900781	1.002
17	151491	32.760183900781	1.002
17	151686	32.790183900781	1.002
17	151740	32.820183900781	1.002
17	151753	32.850183900781	1.002
17	152257	32.880183900781	1.002
17	152348	32.910183900781	1.002
17	152358	32.940183900781	1.002
17	152823	32.970183900781	1.002
17	153022	33.000183900781	1.002
17	153035	33.030183900781	1.002
17	153378	33.060183900781	1.002
17	153573	33.090183900781	1.002
17	153627	33.120183900781	1.002
17	153640	33.150183900781	1.002
17	154112	33.180183900781	1.002
17	154203	33.210183900781	1.002
17	154213	33.240183900781	1.002
17	154651	33.270183900781	1.002
17	154850	33.300183900781	1.002
17	154863	33.330183900781	1.002
17	155206	33.360183900781	1.002
17	155401	33.390183900781	1.002
17	155455	33.420183900781	1.002
17	155468	33.450183900781	1.002
17	155945	33.480183900781	1.002
17	156036	33.510183900781	1.002
17	156046	33.540183900781	1.002
17	156473	33.570183900781	1.002
17	156672	33.600183900781	1.002
17	156685	33.630183900781	1.002
17	157039	33.660183900781	1.002
17	157234	33.690183900781	1.002
17	157288	33.720183900781	1.002
17	157301	33.750183900781	1.002
17	157773	33.780183900781	1.002
17	157864	33.810183900781	1.002
17	157874	33.840183900781	1.002
17	158307	33.870183900781	1.002
17	158506	33.900183900781	1.002
17	158519	33.930183900781	1.002
17	158873	33.960183900781	1.002
17	159068	33.990183900781	1.002
17	159122	34.020183900781	1.002
17	159135	34.050183900781	1.002
17	159607	34.080183900781	1.002
17	159698	34.110183900781	1.002
17	159708	34.140183900781	1.002
17	160130	34.170183900781	1.002
17	160329	34.200183900781	1.002
17	160342	34.230183900781	1.002
17	160696	34.260183900781	1.002
17	160891	34.290183900781	1.002
17	160945	34.320183900781	1.002
17	160958	34.350183900781	1.002
17	161446	34.380183900781	1.002
17	161537	34.410183900781	1.002
17	161547	34.440183900781	1.002
17	162001	34.470183900781	1.002
17	162200	34.500183900781	1.002
17	162213	34.530183900781	1.002
17	162556	34.560183900781	1.002
17	162751	34.590183900781	1.002
17	162805	34.620183900781	1.002
17	162818	34.650183900781	1.002
17	163295	34.680183900781	1.002
17	163386	34.710183900781	1.002
17	163396	34.740183900781	1.002
17	163834	34.770183900781	1.002
17	164033	34.800183900781	1.002
17	164046	34.830183900781	1.002
17	164389	34.860183900781	1.002
17	164584	34.890183900781	1.002
17	164638	34.920183900781	1.002
17	164651	34.950183900781	1.002
17	165134	34.980183900781	1.002
17	165225	35.010183900781	1.002
17	165235	35.040183900781	1.002
17	165705	35.070183900781	1.002
17	165904	35.100183900781	1.002
17	165917	35.130183900781	1.002
17	166271	35.160183900781	1.002
17	166466	35.190183900781	1.002
17	166520	35.220183900781	1.002
17	166533	35.250183900781	1.002
17	166994	35.280183900781	1.002
17	167085	35.310183900781	1.002
17	167095	35.340183900781	1.002
17	167538	35.370183900781	1.002
17	167737	35.400183900781	1.002
17	167750	35.430183900781	1.002
17	168082	35.460183900781	1.002
17	168277	35.490183900781	1.002
17	168331	35.520183900781	1.002
17	168344	35.550183900781	1.002
17	168805	35.580183900781	1.002
17	168896	35.610183900781	1.002
17	168906	35.640183900781	1.002
17	169349	35.670183900781	1.002
17	169548	35.700183900781	1.002
17	169561	35.730183900781	1.002
17	169920	35.760183900781	1.002
17	170115	35.790183900781	1.002
17	170169	35.820183900781	1.002
17	170182	35.850183900781	1.002
17	170670	35.880183900781	1.002
17	170761	35.910183900781	1.002
17	170771	35.940183900781	1.002
17	171198	35.970183900781	1.002
17	171397	36.000183900781	1.002
17	171410	36.030183900781	1.002
17	171748	36.060183900781	1.002
17	171943	36.090183900781	1.002
17	171997	36.120183900781	1.002
17	172010	36.150183900781	1.002
17	172487	36.180183900781	1.002
17	172578	36.210183900781	1.002
17	172588	36.240183900781	1.002
17	173042	36.270183900781	1.002
17	173241	36.300183900781	1.002
17	173254	36.330183900781	1.002
17	173613	36.360183900781	1.002
17	173808	36.390183900781	1.002
17	173862	36.420183900781	1.002
17	173875	36.450183900781	1.002
17	174358	36.480183900781	1.002
17	174449	36.510183900781	1.002
17	174459	36.540183900781	1.002
17	174908	36.570183900781	1.002
17	175107	36.600183900781	1.002
17	175120	36.630183900781	1.002
17	175474	36.660183900781	1.002
17	175669	36.690183900781	1.002
17	175723	36.720183900781	1.002
17	175736	36.750183900781	1.002
17	176224	36.780183900781	1.002
17	176315	36.810183900781	1.002
17	176325	36.840183900781	1.002
17	176768	36.870183900781	1.002
17	176967	36.900183900781	1.002
17	176980	36.930183900781	1.002
17	177339	36.960183900781	1.002
17	177534	36.990183900781	1.002
17	177588	37.020183900781	1.002
17	177601	37.050183900781	1.002
17	178067	37.080183900781	1.002
17	178158	37.110183900781	1.002
17	178168	37.140183900781	1.002
17	178595	37.170183900781	1.002
17	178794	37.200183900781	1.002
17	178807	37.230183900781	1.002
17	179161	37.260183900781	1.002
17	179356	37.290183900781	1.002
17	179410	37.320183900781	1.002
17	179423	37.350183900781	1.002
17	179900	37.380183900781	1.002
17	179991	37.410183900781	1.002
17	180001	37.440183900781	1.002
17	180455	37.470183900781	1.002
17	180654	37.500183900781	1.002
17	180667	37.530183900781	1.002
17	181021	37.560183900781	1.002
17	181216	37.590183900781	1.002
17	181270	37.620183900781	1.002
17	181283	37.650183900781	1.002
17	181755	37.680183900781	1.002
17	181846	37.710183900781	1.002
17	181856	37.740183900781	1.002
17	182294	37.770183900781	1.002
17	182493	37.800183900781	1.002
17	182506	37.830183900781	1.002
17	182849	37.860183900781	1.002
17	183044	37.890183900781	1.002
17	183098	37.920183900781	1.002
17	183111	37.950183900781	1.002
17	183594	37.980183900781	1.002
17	183685	38.010183900781	1.002
17	183695	38.040183900781	1.002
17	184138	38.070183900781	1.002
17	184337	38.100183900781	1.002
17	184350	38.130183900781	1.002
17	184688	38.160183900781	1.002
17	184883	38.190183900781	1.002
17	184937	38.220183900781	1.002
17	184950	38.250183900781	1.002
17	185417	38.280183900781	1.002
17	185508	38.310183900781	1.002
17	185518	38.340183900781	1.002
17	185961	38.370183900781	1.002
17	186160	38.400183900781	1.002
17	186173	38.430183900781	1.002
17	186511	38.460183900781	1.002
17	186706	38.490183900781	1.002
17	186760	38.520183900781	1.002
17	186773	38.550183900781	1.002
17	187245	38.580183900781	1.002
17	187336	38.610183900781	1.002
17	187346	38.640183900781	1.002
17	187816	38.670183900781	1.002
17	188015	38.700183900781	1.002
17	188028	38.730183900781	1.002
17	188382	38.760183900781	1.002
17	188577	38.790183900781	1.002
17	188631	38.820183900781	1.002
17	188644	38.850183900781	1.002
17	189116	38.880183900781	1.002
17	189207	38.910183900781	1.002
17	189217	38.940183900781	1.002
17	189666	38.970183900781	1.002
17	189865	39.000183900781	1.002
17	189878	39.030183900781	1.002
17	190232	39.060183900781	1.002
17	190427	39.090183900781	1.002
17	190481	39.120183900781	1.002
17	190494	39.150183900781	1.002
17	190966	39.180183900781	1.002
17	191057	39.210183900781	1.002
17	191067	39.240183900781	1.002
17	191510	39.270183900781	1.002
17	191709	39.300183900781	1.002
17	191722	39.330183900781	1.002
17	192076	39.360183900781	1.002
17	192271	39.390183900781	1.002
17	192325	39.420183900781	1.002
17	192338	39.450183900781	1.002
17	192826	39.480183900781	1.002
17	192917	39.510183900781	1.002
17	192927	39.540183900781	1.002
17	193354	39.570183900781	1.002
17	193553	39.600183900781	1.002
17	193566	39.630183900781	1.002
17	193914	39.660183900781	1.002
17	194109	39.690183900781	1.002
17	194163	39.720183900781	1.002
17	194176	39.750183900781	1.002
17	194664	39.780183900781	1.002
17	194755	39.810183900781	1.002
17	194765	39.840183900781	1.002
17	195203	39.870183900781	1.002
17	195402	39.900183900781	1.002
17	195415	39.930183900781	1.002
17	195758	39.960183900781	1.002
17	195953	39.990183900781	1.002
17	196007	40.020183900781	1.002
17	196020	40.050183900781	1.002
17	196508	40.080183900781	1.002
17	196599	40.110183900781	1.002
17	196609	40.140183900781	1.002
17	197063	40.170183900781	1.002
17	197262	40.200183900781	1.002
17	197275	40.230183900781	1.002
17	197618	40.260183900781	1.002
17	197813	40.290183900781	1.002
17	197867	40.320183900781	1.002
17	197880	40.350183900781	1.002
17	198384	40.380183900781	1.002
17	198475	40.410183900781	1.002
17	198485	40.440183900781	1.002
17	198950	40.470183900781	1.002
17	199149	40.500183900781	1.002
17	199162	40.530183900781	1.002
17	199500	40.560183900781	1.002
17	199695	40.590183900781	1.002
17	199749	40.620183900781	1.002
17	199762	40.650183900781	1.002
17	200261	40.680183900781	1.002
17	200352	40.710183900781	1.002
17	200362	40.740183900781	1.002
17	200811	40.770183900781	1.002
17	201010	40.800183900781	1.002
17	201023	40.830183900781	1.002
17	201377	40.860183900781	1.002
17	201572	40.890183900781	1.002
17	201626	40.920183900781	1.002
17	201639	40.950183900781	1.002
17	202095	40.980183900781	1.002
17	202186	41.010183900781	1.002
17	202196	41.040183900781	1.002
17	202650	41.070183900781	1.002
17	202849	41.100183900781	1.002
17	202862	41.130183900781	1.002
17	203216	41.160183900781	1.002
17	203411	41.190183900781	1.002
17	203465	41.220183900781	1.002
17	203478	41.250183900781	1.002
17	203966	41.280183900781	1.002
17	204057	41.310183900781	1.002
17	204067	41.340183900781	1.002
17	204521	41.370183900781	1.002
17	204720	41.400183900781	1.002
17	204733	41.430183900781	1.002
17	205076	41.460183900781	1.002
17	205271	41.490183900781	1.002
17	205325	41.520183900781	1.002
17	205338	41.550183900781	1.002
17	205810	41.580183900781	1.002
17	205901	41.610183900781	1.002
17	205911	41.640183900781	1.002
17	206360	41.670183900781	1.002
17	206559	41.700183900781	1.002
17	206572	41.730183900781	1.002
17	206915	41.760183900781	1.002
17	207110	41.790183900781	1.002
17	207164	41.820183900781	1.002
17	207177	41.850183900781	1.002
17	207665	41.880183900781	1.002
17	207756	41.910183900781	1.002
17	207766	41.940183900781	1.002
17	208204	41.970183900781	1.002
17	208403	42.000183900781	1.002
17	208416	42.030183900781	1.002
17	208770	42.060183900781	1.002
17	208965	42.090183900781	1.002
17	209019	42.120183900781	1.002
17	209032	42.150183900781	1.002
17	209509	42.180183900781	1.002
17	209600	42.210183900781	1.002
17	209610	42.240183900781	1.002
17	210037	42.270183900781	1.002
17	210236	42.300183900781	1.002
17	210249	42.330183900781	1.002
17	210603	42.360183900781	1.002
17	210798	42.390183900781	1.002
17	210852	42.420183900781	1.002
17	210865	42.450183900781	1.002
17	211348	42.480183900781	1.002
17	211439	42.510183900781	1.002
17	211449	42.540183900781	1.002
17	211898	42.570183900781	1.002
17	212097	42.600183900781	1.002
17	212110	42.630183900781	1.002
17	212437	42.660183900781	1.002
17	212632	42.690183900781	1.002
17	212686	42.720183900781	1.002
17	212699	42.750183900781	1.002
17	213176	42.780183900781	1.002
17	213267	42.810183900781	1.002
17	213277	42.840183900781	1.002
17	213704	42.870183900781	1.002
17	213903	42.900183900781	1.002
17	213916	42.930183900781	1.002
17	214259	42.960183900781	1.002
17	214454	42.990183900781	1.002
17	214508	43.020183900781	1.002
17	214521	43.050183900781	1.002
17	214982	43.080183900781	1.002
17	215073	43.110183900781	1.002
17	215083	43.140183900781	1.002
17	215542	43.170183900781	1.002
17	215741	43.200183900781	1.002
17	215754	43.230183900781	1.002
17	216108	43.260183900781	1.002
17	216303	43.290183900781	1.002
17	216357	43.320183900781	1.002
17	216370	43.350183900781	1.002
17	216869	43.380183900781	1.002
17	216960	43.410183900781	1.002
17	216970	43.440183900781	1.002
17	217408	43.470183900781	1.002
17	217607	43.500183900781	1.002
17	217620	43.530183900781	1.002
17	217974	43.560183900781	1.002
17	218169	43.590183900781	1.002
17	218223	43.620183900781	1.002
17	218236	43.650183900781	1.002
17	218735	43.680183900781	1.002
17	218826	43.710183900781	1.002
17	218836	43.740183900781	1.002
17	219290	43.770183900781	1.002
17	219489	43.800183900781	1.002
17	219502	43.830183900781	1.002
17	219834	43.860183900781	1.002
17	220029	43.890183900781	1.002
17	220083	43.920183900781	1.002
17	220096	43.950183900781	1.002
17	220584	43.980183900781	1.002
17	220675	44.010183900781	1.002
17	220685	44.040183900781	1.002
17	221150	44.070183900781	1.002
17	221349	44.100183900781	1.002
17	221362	44.130183900781	1.002
17	221705	44.160183900781	1.002
17	221900	44.190183900781	1.002
17	221954	44.220183900781	1.002
17	221967	44.250183900781	1.002
17	222439	44.280183900781	1.002
17	222530	44.310183900781	1.002
17	222540	44.340183900781	1.002
17	222989	44.370183900781	1.002
17	223188	44.400183900781	1.002
17	223201	44.430183900781	1.002
17	223555	44.460183900781	1.002
17	223750	44.490183900781	1.002
17	223804	44.520183900781	1.002
17	223817	44.550183900781	1.002
17	224316	44.580183900781	1.002
17	224407	44.610183900781	1.002
17	224417	44.640183900781	1.002
17	224887	44.670183900781	1.002
17	225086	44.700183900781	1.002
17	225099	44.730183900781	1.002
17	225458	44.760183900781	1.002
17	225653	44.790183900781	1.002
17	225707	44.820183900781	1.002
17	225720	44.850183900781	1.002
17	226203	44.880183900781	1.002
17	226294	44.910183900781	1.002
17	226304	44.940183900781	1.002
17	226774	44.970183900781	1.002
17	226973	45.000183900781	1.002
17	226986	45.030183900781	1.002
17	227313	45.060183900781	1.002
17	227508	45.090183900781	1.002
17	227562	45.120183900781	1.002
17	227575	45.150183900781	1.002
17	228063	45.180183900781	1.002
17	228154	45.210183900781	1.002
17	228164	45.240183900781	1.002
17	228613	45.270183900781	1.002
17	228812	45.300183900781	1.002
17	228825	45.330183900781	1.002
17	229163	45.360183900781	1.002
17	229358	45.390183900781	1.002
17	229412	45.420183900781	1.002
17	229425	45.450183900781	1.002
17	229902	45.480183900781	1.002
17	229993	45.510183900781	1.002
17	230003	45.540183900781	1.002
17	230446	45.570183900781	1.002
17	230645	45.600183900781	1.002
17	230658	45.630183900781	1.002
17	231001	45.660183900781	1.002
17	231196	45.690183900781	1.002
17	231250	45.720183900781	1.002
17	231263	45.750183900781	1.002
17	231735	45.780183900781	1.002
17	231826	45.810183900781	1.002
17	231836	45.840183900781	1.002
17	232285	45.870183900781	1.002
17	232484	45.900183900781	1.002
17	232497	45.930183900781	1.002
17	232835	45.960183900781	1.002
17	233030	45.990183900781	1.002
17	233084	46.020183900781	1.002
17	233097	46.050183900781	1.002
17	233569	46.080183900781	1.002
17	233660	46.110183900781	1.002
17	233670	46.140183900781	1.002
17	234113	46.170183900781	1.002
17	234312	46.200183900781	1.002
17	234325	46.230183900781	1.002
17	234684	46.260183900781	1.002
17	234879	46.290183900781	1.002
17	234933	46.320183900781	1.002
17	234946	46.350183900781	1.002
17	235434	46.380183900781	1.002
17	235525	46.410183900781	1.002
17	235535	46.440183900781	1.002
17	235989	46.470183900781	1.002
17	236188	46.500183900781	1.002
17	236201	46.530183900781	1.002
17	236539	46.560183900781	1.002
17	236734	46.590183900781	1.002
17	236788	46.620183900781	1.002
17	236801	46.650183900781	1.002
17	237289	46.680183900781	1.002
17	237380	46.710183900781	1.002
17	237390	46.740183900781	1.002
17	237828	46.770183900781	1.002
17	238027	46.800183900781	1.002
17	238040	46.830183900781	1.002
17	238394	46.860183900781	1.002
17	238589	46.890183900781	1.002
17	238643	46.920183900781	1.002
17	238656	46.950183900781	1.002
17	239139	46.980183900781	1.002
17	239230	47.010183900781	1.002
17	239240	47.040183900781	1.002
17	239689	47.070183900781	1.002
17	239888	47.100183900781	1.002
17	239901	47.130183900781	1.002
17	240244	47.160183900781	1.002
17	240439	47.190183900781	1.002
17	240493	47.220183900781	1.002
17	240506	47.250183900781	1.002
17	240983	47.280183900781	1.002
17	241074	47.310183900781	1.002
17	241084	47.340183900781	1.002
17	241516	47.370183900781	1.002
17	241715	47.400183900781	1.002
17	241728	47.430183900781	1.002
17	242071	47.460183900781	1.002
17	242266	47.490183900781	1.002
17	242320	47.520183900781	1.002
17	242333	47.550183900781	1.002
17	242821	47.580183900781	1.002
17	242912	47.610183900781	1.002
17	242922	47.640183900781	1.002
17	243365	47.670183900781	1.002
17	243564	47.700183900781	1.002
17	243577	47.730183900781	1.002
17	243909	47.760183900781	1.002
17	244104	47.790183900781	1.002
17	244158	47.820183900781	1.002
17	244171	47.850183900781	1.002
17	244643	47.880183900781	1.002
17	244734	47.910183900781	1.002
17	244744	47.940183900781	1.002
17	245193	47.970183900781	1.002
17	245392	48.000183900781	1.002
17	245405	48.030183900781	1.002
17	245764	48.060183900781	1.002
17	245959	48.090183900781	1.002
17	246013	48.120183900781	1.002
17	246026	48.150183900781	1.002
17	246503	48.180183900781	1.002
17	246594	48.210183900781	1.002
17	246604	48.240183900781	1.002
17	247069	48.270183900781	1.002
17	247268	48.300183900781	1.002
17	247281	48.330183900781	1.002
17	247613	48.360183900781	1.002
17	247808	48.390183900781	1.002
17	247862	48.420183900781	1.002
17	247875	48.450183900781	1.002
17	248352	48.480183900781	1.002
17	248443	48.510183900781	1.002
17	248453	48.540183900781	1.002
17	248896	48.570183900781	1.002
17	249095	48.600183900781	1.002
17	249108	48.630183900781	1.002
17	249435	48.660183900781	1.002
17	249630	48.690183900781	1.002
17	249684	48.720183900781	1.002
17	249697	48.750183900781	1.002
17	250158	48.780183900781	1.002
17	250249	48.810183900781	1.002
17	250259	48.840183900781	1.002
17	250724	48.870183900781	1.002
17	250923	48.900183900781	1.002
17	250936	48.930183900781	1.002
17	251279	48.960183900781	1.002
17	251474	48.990183900781	1.002
17	251528	49.020183900781	1.002
17	251541	49.050183900781	1.002
17	252007	49.080183900781	1.002
17	252098	49.110183900781	1.002
17	252108	49.140183900781	1.002
17	252567	49.170183900781	1.002
17	252766	49.200183900781	1.002
17	252779	49.230183900781	1.002
17	253117	49.260183900781	1.002
17	253312	49.290183900781	1.002
17	253366	49.320183900781	1.002
17	253379	49.350183900781	1.002
17	253862	49.380183900781	1.002
17	253953	49.410183900781	1.002
17	253963	49.440183900781	1.002
17	254417	49.470183900781	1.002
17	254616	49.500183900781	1.002
17	254629	49.530183900781	1.002
17	254961	49.560183900781	1.002
17	255156	49.590183900781	1.002
17	255210	49.620183900781	1.002
17	255223	49.650183900781	1.002
17	255684	49.680183900781	1.002
17	255775	49.710183900781	1.002
17	255785	49.740183900781	1.002
17	256218	49.770183900781	1.002
17	256417	49.800183900781	1.002
17	256430	49.830183900781	1.002
17	256773	49.860183900781	1.002
17	256968	49.890183900781	1.002
17	257022	49.920183900781	1.002
17	257035	49.950183900781	1.002
17	257507	49.980183900781	1.002
17	257598	50.010183900781	1.002
17	257608	50.040183900781	1.002
17	258057	50.070183900781	1.002
17	258256	50.100183900781	1.002
17	258269	50.130183900781	1.002
17	258623	50.160183900781	1.002
17	258818	50.190183900781	1.002
17	258872	50.220183900781	1.002
17	258885	50.250183900781	1.002
17	259362	50.280183900781	1.002
17	259453	50.310183900781	1.002
17	259463	50.340183900781	1.002
17	259912	50.370183900781	1.002
17	260111	50.400183900781	1.002
17	260124	50.430183900781	1.002
17	260478	50.460183900781	1.002
17	260673	50.490183900781	1.002
17	260727	50.520183900781	1.002
17	260740	50.550183900781	1.002
17	261228	50.580183900781	1.002
17	261319	50.610183900781	1.002
17	261329	50.640183900781	1.002
17	261751	50.670183900781	1.002
17	261950	50.700183900781	1.002
17	261963	50.730183900781	1.002
17	262301	50.760183900781	1.002
17	262496	50.790183900781	1.002
17	262550	50.820183900781	1.002
17	262563	50.850183900781	1.002
17	263024	50.880183900781	1.002
17	263115	50.910183900781	1.002
17	263125	50.940183900781	1.002
17	263579	50.970183900781	1.002
17	263778	51.000183900781	1.002
17	263791	51.030183900781	1.002
17	264118	51.060183900781	1.002
17	264313	51.090183900781	1.002
17	264367	51.120183900781	1.002
17	264380	51.150183900781	1.002
17	264852	51.180183900781	1.002
17	264943	51.210183900781	1.002
17	264953	51.240183900781	1.002
17	265402	51.270183900781	1.002
17	265601	51.300183900781	1.002
17	265614	51.330183900781	1.002
17	265952	51.360183900781	1.002
17	266147	51.390183900781	1.002
17	266201	51.420183900781	1.002
17	266214	51.450183900781	1.002
17	266691	51.480183900781	1.002
17	266782	51.510183900781	1.002
17	266792	51.540183900781	1.002
17	267241	51.570183900781	1.002
17	267440	51.600183900781	1.002
17	267453	51.630183900781	1.002
17	267807	51.660183900781	1.002
17	268002	51.690183900781	1.002
17	268056	51.720183900781	1.002
17	268069	51.750183900781	1.002
17	268552	51.780183900781	1.002
17	268643	51.810183900781	1.002
17	268653	51.840183900781	1.002
17	269085	51.870183900781	1.002
17	269284	51.900183900781	1.002
17	269297	51.930183900781	1.002
17	269656	51.960183900781	1.002
17	269851	51.990183900781	1.002
17	269905	52.020183900781	1.002
17	269918	52.050183900781	1.002
17	270390	52.080183900781	1.002
17	270481	52.110183900781	1.002
17	270491	52.140183900781	1.002
17	270940	52.170183900781	1.002
17	271139	52.200183900781	1.002
17	271152	52.230183900781	1.002
17	271490	52.260183900781	1.002
17	271685	52.290183900781	1.002
17	271739	52.320183900781	1.002
17	271752	52.350183900781	1.002
17	272235	52.380183900781	1.002
17	272326	52.410183900781	1.002
17	272336	52.440183900781	1.002
17	272785	52.470183900781	1.002
17	272984	52.500183900781	1.002
17	272997	52.530183900781	1.002
17	273335	52.560183900781	1.002
17	273530	52.590183900781	1.002
17	273584	52.620183900781	1.002
17	273597	52.650183900781	1.002
17	274063	52.680183900781	1.002
17	274154	52.710183900781	1.002
17	274164	52.740183900781	1.002
17	274618	52.770183900781	1.002
17	274817	52.800183900781	1.002
17	274830	52.830183900781	1.002
17	275157	52.860183900781	1.002
17	275352	52.890183900781	1.002
17	275406	52.920183900781	1.002
17	275419	52.950183900781	1.002
17	275918	52.980183900781	1.002
17	276009	53.010183900781	1.002
17	276019	53.040183900781	1.002
17	276452	53.070183900781	1.002
17	276651	53.100183900781	1.002
17	276664	53.130183900781	1.002
17	277002	53.160183900781	1.002
17	277197	53.190183900781	1.002
17	277251	53.220183900781	1.002
17	277264	53.250183900781	1.002
17	277741	53.280183900781	1.002
17	277832	53.310183900781	1.002
17	277842	53.340183900781	1.002
17	278280	53.370183900781	1.002
17	278479	53.400183900781	1.002
17	278492	53.430183900781	1.002
17	278835	53.460183900781	1.002
17	279030	53.490183900781	1.002
17	279084	53.520183900781	1.002
17	279097	53.550183900781	1.002
17	279564	53.580183900781	1.002
17	279655	53.610183900781	1.002
17	279665	53.640183900781	1.002
17	280130	53.670183900781	1.002
17	280329	53.700183900781	1.002
17	280342	53.730183900781	1.002
17	280701	53.760183900781	1.002
17	280896	53.790183900781	1.002
17	280950	53.820183900781	1.002
17	280963	53.850183900781	1.002
17	281451	53.880183900781	1.002
17	281542	53.910183900781	1.002
17	281552	53.940183900781	1.002
17	282006	53.970183900781	1.002
17	282205	54.000183900781	1.002
17	282218	54.030183900781	1.002
17	282572	54.060183900781	1.002
17	282767	54.090183900781	1.002
17	282821	54.120183900781	1.002
17	282834	54.150183900781	1.002
17	283327	54.180183900781	1.002
17	283418	54.210183900781	1.002
17	283428	54.240183900781	1.002
17	283893	54.270183900781	1.002
17	284092	54.300183900781	1.002
17	284105	54.330183900781	1.002
17	284437	54.360183900781	1.002
17	284632	54.390183900781	1.002
17	284686	54.420183900781	1.002
17	284699	54.450183900781	1.002
17	285176	54.480183900781	1.002
17	285267	54.510183900781	1.002
17	285277	54.540183900781	1.002
17	285715	54.570183900781	1.002
17	285914	54.600183900781	1.002
17	285927	54.630183900781	1.002
17	286259	54.660183900781	1.002
17	286454	54.690183900781	1.002
17	286508	54.720183900781	1.002
17	286521	54.750183900781	1.002
17	287009	54.780183900781	1.002
17	287100	54.810183900781	1.002
17	287110	54.840183900781	1.002
17	287559	54.870183900781	1.002
17	287758	54.900183900781	1.002
17	287771	54.930183900781	1.002
17	288125	54.960183900781	1.002
17	288320	54.990183900781	1.002
17	288374	55.020183900781	1.002
17	288387	55.050183900781	1.002
17	288870	55.080183900781	1.002
17	288961	55.110183900781	1.002
17	288971	55.140183900781	1.002
17	289441	55.170183900781	1.002
17	289640	55.200183900781	1.002
17	289653	55.230183900781	1.002
17	289991	55.260183900781	1.002
17	290186	55.290183900781	1.002
17	290240	55.320183900781	1.002
17	290253	55.350183900781	1.002
17	290725	55.380183900781	1.002
17	290816	55.410183900781	1.002
17	290826	55.440183900781	1.002
17	291269	55.470183900781	1.002
17	291468	55.500183900781	1.002
17	291481	55.530183900781	1.002
17	291819	55.560183900781	1.002
17	292014	55.590183900781	1.002
17	292068	55.620183900781	1.002
17	292081	55.650183900781	1.002
17	292548	55.680183900781	1.002
17	292639	55.710183900781	1.002
17	292649	55.740183900781	1.002
17	293098	55.770183900781	1.002
17	293297	55.800183900781	1.002
17	293310	55.830183900781	1.002
17	293653	55.860183900781	1.002
17	293848	55.890183900781	1.002
17	293902	55.920183900781	1.002
17	293915	55.950183900781	1.002
17	294371	55.980183900781	1.002
17	294462	56.010183900781	1.002
17	294472	56.040183900781	1.002
17	294926	56.070183900781	1.002
17	295125	56.100183900781	1.002
17	295138	56.130183900781	1.002
17	295476	56.160183900781	1.002
17	295671	56.190183900781	1.002
17	295725	56.220183900781	1.002
17	295738	56.250183900781	1.002
17	296210	56.280183900781	1.002
17	296301	56.310183900781	1.002
17	296311	56.340183900781	1.002
17	296744	56.370183900781	1.002
17	296943	56.400183900781	1.002
17	296956	56.430183900781	1.002
17	297299	56.460183900781	1.002
17	297494	56.490183900781	1.002
17	297548	56.520183900781	1.002
17	297561	56.550183900781	1.002
17	298049	56.580183900781	1.002
17	298140	56.610183900781	1.002
17	298150	56.640183900781	1.002
17	298588	56.670183900781	1.002
17	298787	56.700183900781	1.002
17	298800	56.730183900781	1.002
17	299143	56.760183900781	1.002
17	299338	56.790183900781	1.002
17	299392	56.820183900781	1.002
17	299405	56.850183900781	1.002
17	299877	56.880183900781	1.002
17	299968	56.910183900781	1.002
17	299978	56.940183900781	1.002
17	300427	56.970183900781	1.002
17	300626	57.000183900781	1.002
17	300639	57.030183900781	1.002
17	300998	57.060183900781	1.002
17	301193	57.090183900781	1.002
17	301247	57.120183900781	1.002
17	301260	57.150183900781	1.002
17	301743	57.180183900781	1.002
17	301834	57.210183900781	1.002
17	301844	57.240183900781	1.002
17	302293	57.270183900781	1.002
17	302492	57.300183900781	1.002
17	302505	57.330183900781	1.002
17	302864	57.360183900781	1.002
17	303059	57.390183900781	1.002
17	303113	57.420183900781	1.002
17	303126	57.450183900781	1.002
17	303598	57.480183900781	1.002
17	303689	57.510183900781	1.002
17	303699	57.540183900781	1.002
17	304126	57.570183900781	1.002
17	304325	57.600183900781	1.002
17	304338	57.630183900781	1.002
17	304665	57.660183900781	1.002
17	304860	57.690183900781	1.002
17	304914	57.720183900781	1.002
17	304927	57.750183900781	1.002
17	305404	57.780183900781	1.002
17	305495	57.810183900781	1.002
17	305505	57.840183900781	1.002
17	305943	57.870183900781	1.002
17	306142	57.900183900781	1.002
17	306155	57.930183900781	1.002
17	306493	57.960183900781	1.002
17	306688	57.990183900781	1.002
17	306742	58.020183900781	1.002
17	306755	58.050183900781	1.002
17	307232	58.080183900781	1.002
17	307323	58.110183900781	1.002
17	307333	58.140183900781	1.002
17	307766	58.170183900781	1.002
17	307965	58.200183900781	1.002
17	307978	58.230183900781	1.002
17	308332	58.260183900781	1.002
17	308527	58.290183900781	1.002
17	308581	58.320183900781	1.002
17	308594	58.350183900781	1.002
17	309066	58.380183900781	1.002
17	309157	58.410183900781	1.002
17	309167	58.440183900781	1.002
17	309610	58.470183900781	1.002
17	309809	58.500183900781	1.002
17	309822	58.530183900781	1.002
17	310176	58.560183900781	1.002
17	310371	58.590183900781	1.002
17	310425	58.620183900781	1.002
17	310438	58.650183900781	1.002
17	310915	58.680183900781	1.002
17	311006	58.710183900781	1.002
17	311016	58.740183900781	1.002
17	311459	58.770183900781	1.002
17	311658	58.800183900781	1.002
17	311671	58.830183900781	1.002
17	311998	58.860183900781	1.002
17	312193	58.890183900781	1.002
17	312247	58.920183900781	1.002
17	312260	58.950183900781	1.002
17	312748	58.980183900781	1.002
17	312839	59.010183900781	1.002
17	312849	59.040183900781	1.002
17	313298	59.070183900781	1.002
17	313497	59.100183900781	1.002
17	313510	59.130183900781	1.002
17	313864	59.160183900781	1.002
17	314059	59.190183900781	1.002
17	314113	59.220183900781	1.002
17	314126	59.250183900781	1.002
17	314625	59.280183900781	1.002
17	314716	59.310183900781	1.002
17	314726	59.340183900781	1.002
17	315158	59.370183900781	1.002
17	315357	59.400183900781	1.002
17	315370	59.430183900781	1.002
17	315729	59.460183900781	1.002
17	315924	59.490183900781	1.002
17	315978	59.520183900781	1.002
17	315991	59.550183900781	1.002
17	316463	59.580183900781	1.002
17	316554	59.610183900781	1.002
17	316564	59.640183900781	1.002
17	317013	59.670183900781	1.002
17	317212	59.700183900781	1.002
17	317225	59.730183900781	1.002
17	317563	59.760183900781	1.002
17	317758	59.790183900781	1.002
17	317812	59.820183900781	1.002
17	317825	59.850183900781	1.002
17	318286	59.880183900781	1.002
17	318377	59.910183900781	1.002
17	318387	59.940183900781	1.002
17	318835	59.970183900781	1.002
17	319034	60.000183900781	1.002
17	319047	60.030183900781	1.002
17	319385	60.060183900781	1.002
17	319580	60.090183900781	1.002
17	319634	60.120183900781	1.002
17	319647	60.150183900781	1.002
17	320135	60.180183900781	1.002
17	320226	60.210183900781	1.002
17	320236	60.240183900781	1.002
17	320701	60.270183900781	1.002
17	320900	60.300183900781	1.002
17	320913	60.330183900781	1.002
17	321251	60.360183900781	1.002
17	321446	60.390183900781	1.002
17	321500	60.420183900781	1.002
17	321513	60.450183900781	1.002
17	321969	60.480183900781	1.002
17	322060	60.510183900781	1.002
17	322070	60.540183900781	1.002
17	322524	60.570183900781	1.002
17	322723	60.600183900781	1.002
17	322736	60.630183900781	1.002
17	323106	60.660183900781	1.002
17	323301	60.690183900781	1.002
17	323355	60.720183900781	1.002
17	323368	60.750183900781	1.002
17	323840	60.780183900781	1.002
17	323931	60.810183900781	1.002
17	323941	60.840183900781	1.002
17	324406	60.870183900781	1.002
17	324605	60.900183900781	1.002
17	324618	60.930183900781	1.002
17	324972	60.960183900781	1.002
17	325167	60.990183900781	1.002
17	325221	61.020183900781	1.002
17	325234	61.050183900781	1.002
17	325690	61.080183900781	1.002
17	325781	61.110183900781	1.002
17	325791	61.140183900781	1.002
17	326218	61.170183900781	1.002
17	326417	61.200183900781	1.002
17	326430	61.230183900781	1.002
17	326784	61.260183900781	1.002
17	326979	61.290183900781	1.002
17	327033	61.320183900781	1.002
17	327046	61.350183900781	1.002
17	327534	61.380183900781	1.002
17	327625	61.410183900781	1.002
17	327635	61.440183900781	1.002
17	328084	61.470183900781	1.002
17	328283	61.500183900781	1.002
17	328296	61.530183900781	1.002
17	328655	61.560183900781	1.002
17	328850	61.590183900781	1.002
16	25	0.540183900781	1
16	42	0.570183900781	2
16	59	0.600183900781	3
16	62	0.630183900781	4
16	92	0.660183900781	5
16	107	0.690183900781	6
16	125	0.720183900781	7
16	128	0.750183900781	8
16	157	0.780183900781	9
16	175	0.810183900781	10
16	177	0.840183900781	11
16	207	0.870183900781	12
16	224	0.900183900781	13
16	227	0.930183900781	14
16	257	0.960183900781	15
16	272	0.990183900781	16
16	290	1.020183900781	17
16	293	1.050183900781	18
16	322	1.080183900781	19
16	340	1.110183900781	20
16	342	1.140183900781	21
16	372	1.170183900781	22
16	389	1.200183900781	23
16	392	1.230183900781	24
16	422	1.260183900781	25
16	437	1.290183900781	26
16	455	1.320183900781	27
16	458	1.350183900781	28
16	487	1.380183900781	29
16	505	1.410183900781	30
16	507	1.440183900781	31
16	537	1.470183900781	32
16	554	1.500183900781	33
16	557	1.530183900781	34
16	587	1.560183900781	35
16	602	1.590183900781	36
16	620	1.620183900781	37
16	623	1.650183900781	38
16	652	1.680183900781	39
16	670	1.710183900781	40
16	672	1.740183900781	41
16	702	1.770183900781	42
16	719	1.800183900781	43
16	722	1.830183900781	44
16	752	1.860183900781	45
16	767	1.890183900781	46
16	785	1.920183900781	47
16	788	1.950183900781	48
16	817	1.980183900781	49
16	835	2.010183900781	50
16	837	2.040183900781	51
16	867	2.070183900781	52
16	884	2.100183900781	53
16	887	2.130183900781	54
16	917	2.160183900781	55
16	932	2.190183900781	56
16	950	2.220183900781	57
16	953	2.250183900781	58
16	982	2.280183900781	59
16	1000	2.310183900781	60
16	1002	2.340183900781	61
16	1032	2.370183900781	62
16	1049	2.400183900781	63
16	1052	2.430183900781	64
16	1082	2.460183900781	65
16	1097	2.490183900781	66
16	1115	2.520183900781	67
16	1118	2.550183900781	68
16	1147	2.580183900781	69
16	1165	2.610183900781	70
16	1167	2.640183900781	71
16	1197	2.670183900781	72
16	1214	2.700183900781	73
16	1217	2.730183900781	74
16	1247	2.760183900781	75
16	1262	2.790183900781	76
16	1280	2.820183900781	77
16	1283	2.850183900781	78
16	1312	2.880183900781	79
16	1330	2.910183900781	80
16	1332	2.940183900781	81
16	1362	2.970183900781	82
16	1379	3.000183900781	83
16	1382	3.030183900781	84
16	1412	3.060183900781	85
16	1427	3.090183900781	86
16	1445	3.120183900781	87
16	1448	3.150183900781	88
16	1511	3.180183900781	90
16	1538	3.210183900781	92
16	1542	3.240183900781	94
16	1644	3.270183900781	96
16	1688	3.300183900781	98
16	1694	3.330183900781	100
16	1777	3.360183900781	102
16	1819	3.390183900781	104
16	1846	3.420183900781	106
16	1851	3.450183900781	108
16	1952	3.480183900781	110
16	1979	3.510183900781	112
16	1983	3.540183900781	114
16	2078	3.570183900781	116
16	2122	3.600183900781	118
16	2128	3.630183900781	120
16	2204	3.660183900781	122
16	2246	3.690183900781	124
16	2273	3.720183900781	126
16	2278	3.750183900781	128
16	2379	3.780183900781	130
16	2406	3.810183900781	132
16	2410	3.840183900781	134
16	2505	3.870183900781	136
16	2549	3.900183900781	138
16	2555	3.930183900781	140
16	2638	3.960183900781	142
16	2680	3.990183900781	144
16	2707	4.020183900781	146
16	2712	4.050183900781	148
16	2813	4.080183900781	150
16	2840	4.110183900781	152
16	2844	4.140183900781	154
16	2946	4.170183900781	156
16	2990	4.200183900781	158
16	2996	4.230183900781	160
16	3072	4.260183900781	162
16	3114	4.290183900781	164
16	3141	4.320183900781	166
16	3146	4.350183900781	168
16	3247	4.380183900781	170
16	3274	4.410183900781	172
16	3278	4.440183900781	174
16	3380	4.470183900781	176
16	3424	4.500183900781	178
16	3430	4.530183900781	180
16	3513	4.560183900781	182
16	3555	4.590183900781	184
16	3582	4.620183900781	186
16	3587	4.650183900781	188
16	3688	4.680183900781	190
16	3715	4.710183900781	192
16	3719	4.740183900781	194
16	3821	4.770183900781	196
16	3865	4.800183900781	198
16	3871	4.830183900781	200
16	3947	4.860183900781	202
16	3989	4.890183900781	204
16	4016	4.920183900781	206
16	4021	4.950183900781	208
16	4122	4.980183900781	210
16	4149	5.010183900781	212
16	4153	5.040183900781	214
16	4255	5.070183900781	216
16	4299	5.100183900781	218
16	4305	5.130183900781	220
16	4388	5.160183900781	222
16	4430	5.190183900781	224
16	4457	5.220183900781	226
16	4462	5.250183900781	228
16	4563	5.280183900781	230
16	4590	5.310183900781	232
16	4594	5.340183900781	234
16	4696	5.370183900781	236
16	4740	5.400183900781	238
16	4746	5.430183900781	240
16	4822	5.460183900781	242
16	4864	5.490183900781	244
16	4891	5.520183900781	246
16	4896	5.550183900781	248
16	4990	5.580183900781	250
16	5017	5.610183900781	252
16	5021	5.640183900781	254
16	5123	5.670183900781	256
16	5167	5.700183900781	258
16	5173	5.730183900781	260
16	5256	5.760183900781	262
16	5298	5.790183900781	264
16	5325	5.820183900781	266
16	5330	5.850183900781	268
16	5431	5.880183900781	270
16	5458	5.910183900781	272
16	5462	5.940183900781	274
16	5557	5.970183900781	276
16	5601	6.000183900781	278
16	5607	6.030183900781	280
16	5690	6.060183900781	282
16	5732	6.090183900781	284
16	5759	6.120183900781	286
16	5765	6.150183900781	288
16	5896	6.180183900781	290
16	5930	6.210183900781	292
16	5934	6.240183900781	294
16	6057	6.270183900781	296
16	6114	6.300183900781	298
16	6120	6.330183900781	300
16	6228	6.360183900781	302
16	6282	6.390183900781	304
16	6316	6.420183900781	306
16	6322	6.450183900781	308
16	6443	6.480183900781	310
16	6477	6.510183900781	312
16	6481	6.540183900781	314
16	6604	6.570183900781	316
16	6661	6.600183900781	318
16	6667	6.630183900781	320
16	6775	6.660183900781	322
16	6829	6.690183900781	324
16	6863	6.720183900781	326
16	6869	6.750183900781	328
16	6990	6.780183900781	330
16	7024	6.810183900781	332
16	7028	6.840183900781	334
16	7188	6.870183900781	337
16	7272	6.900183900781	340
16	7280	6.930183900781	343
16	7413	6.960183900781	346
16	7494	6.990183900781	349
16	7530	7.020183900781	352
16	7538	7.050183900781	355
16	7746	7.080183900781	358
16	7782	7.110183900781	361
16	7788	7.140183900781	364
16	7988	7.170183900781	367
16	8072	7.200183900781	370
16	8080	7.230183900781	373
16	8220	7.260183900781	376
16	8301	7.290183900781	379
16	8337	7.320183900781	382
16	8345	7.350183900781	385
16	8553	7.380183900781	388
16	8589	7.410183900781	391
16	8595	7.440183900781	394
16	8805	7.470183900781	397
16	8889	7.500183900781	400
16	8897	7.530183900781	403
16	9040	7.560183900781	406
16	9121	7.590183900781	409
16	9157	7.620183900781	412
16	9165	7.650183900781	415
16	9363	7.680183900781	418
16	9399	7.710183900781	421
16	9405	7.740183900781	424
16	9598	7.770183900781	427
16	9682	7.800183900781	430
16	9690	7.830183900781	433
16	9850	7.860183900781	436
16	9931	7.890183900781	439
16	9967	7.920183900781	442
16	9975	7.950183900781	445
16	10166	7.980183900781	448
16	10202	8.010183900781	451
16	10208	8.040183900781	454
16	10408	8.070183900781	457
16	10492	8.100183900781	460
16	10500	8.130183900781	463
16	10650	8.160183900781	466
16	10731	8.190183900781	469
16	10767	8.220183900781	472
16	10775	8.250183900781	475
16	10983	8.280183900781	478
16	11019	8.310183900781	481
16	11025	8.340183900781	484
16	11235	8.370183900781	487
16	11319	8.400183900781	490
16	11327	8.430183900781	493
16	11477	8.460183900781	496
16	11558	8.490183900781	499
16	11594	8.520183900781	502
16	11602	8.550183900781	505
16	11810	8.580183900781	508
16	11846	8.610183900781	511
16	11852	8.640183900781	514
16	12052	8.670183900781	517
16	12136	8.700183900781	520
16	12144	8.730183900781	523
16	12294	8.760183900781	526
16	12375	8.790183900781	529
16	12411	8.820183900781	532
16	12419	8.850183900781	535
16	12610	8.880183900781	538
16	12646	8.910183900781	541
16	12652	8.940183900781	544
16	12852	8.970183900781	547
16	12936	9.000183900781	550
16	12944	9.030183900781	553
16	13094	9.060183900781	556
16	13175	9.090183900781	559
16	13211	9.120183900781	562
16	13220	9.150183900781	565
16	13454	9.180183900781	568
16	13497	9.210183900781	571
16	13503	9.240183900781	574
16	13762	9.270183900781	577
16	13865	9.300183900781	580
16	13873	9.330183900781	583
16	14058	9.360183900781	586
16	14157	9.390183900781	589
16	14200	9.420183900781	592
16	14209	9.450183900781	595
16	14453	9.480183900781	598
16	14496	9.510183900781	601
16	14502	9.540183900781	604
16	14748	9.570183900781	607
16	14851	9.600183900781	610
16	14859	9.630183900781	613
16	15056	9.660183900781	616
16	15155	9.690183900781	619
16	15198	9.720183900781	622
16	15207	9.750183900781	625
16	15450	9.780183900781	628
16	15493	9.810183900781	631
16	15499	9.840183900781	634
16	15746	9.870183900781	637
16	15849	9.900183900781	640
16	15857	9.930183900781	643
16	16054	9.960183900781	646
16	16153	9.990183900781	649
16	16196	10.020183900781	652
16	16205	10.050183900781	655
16	16481	10.080183900781	659
16	16526	10.110183900781	663
16	16534	10.140183900781	667
16	16849	10.170183900781	671
16	16985	10.200183900781	675
16	16995	10.230183900781	679
16	17243	10.260183900781	683
16	17375	10.290183900781	687
16	17420	10.320183900781	691
16	17431	10.350183900781	695
16	17747	10.380183900781	699
16	17792	10.410183900781	703
16	17800	10.440183900781	707
16	18128	10.470183900781	711
16	18264	10.500183900781	715
16	18274	10.530183900781	719
16	18522	10.560183900781	723
16	18654	10.590183900781	727
16	18699	10.620183900781	731
16	18710	10.650183900781	735
16	19030	10.680183900781	739
16	19075	10.710183900781	743
16	19083	10.740183900781	747
16	19393	10.770183900781	751
16	19529	10.800183900781	755
16	19539	10.830183900781	759
16	19800	10.860183900781	763
16	19932	10.890183900781	767
16	19977	10.920183900781	771
16	19988	10.950183900781	775
16	20304	10.980183900781	779
16	20349	11.010183900781	783
16	20357	11.040183900781	787
16	20676	11.070183900781	791
16	20812	11.100183900781	795
16	20822	11.130183900781	799
16	21070	11.160183900781	803
16	21202	11.190183900781	807
16	21247	11.220183900781	811
16	21258	11.250183900781	815
16	21583	11.280183900781	819
16	21628	11.310183900781	823
16	21636	11.340183900781	827
16	21977	11.370183900781	831
16	22113	11.400183900781	835
16	22123	11.430183900781	839
16	22371	11.460183900781	843
16	22503	11.490183900781	847
16	22548	11.520183900781	851
16	22559	11.550183900781	855
16	22888	11.580183900781	859
16	22933	11.610183900781	863
[...]
14	225698	44.800279462259	0.002
14	225722	44.850279462259	0.001
14	226287	44.900279462259	0.002
14	226311	44.950279462259	0.001
14	226975	45.000279462259	0.002
14	226995	45.050279462259	0.001
14	227553	45.100279462259	0.002
14	227577	45.150279462259	0.001
14	228147	45.200279462259	0.002
14	228171	45.250279462259	0.001
14	228814	45.300279462259	0.002
14	228834	45.350279462259	0.001
14	229403	45.400279462259	0.002
14	229427	45.450279462259	0.001
14	229986	45.500279462259	0.002
14	230010	45.550279462259	0.001
14	230647	45.600279462259	0.002
14	230667	45.650279462259	0.001
14	231241	45.700279462259	0.002
14	231265	45.750279462259	0.001
14	231819	45.800279462259	0.002
14	231843	45.850279462259	0.001
14	232486	45.900279462259	0.002
14	232506	45.950279462259	0.001
14	233075	46.000279462259	0.002
14	233099	46.050279462259	0.001
14	233653	46.100279462259	0.002
14	233677	46.150279462259	0.001
14	234314	46.200279462259	0.002
14	234334	46.250279462259	0.001
14	234924	46.300279462259	0.002
14	234948	46.350279462259	0.001
14	235518	46.400279462259	0.002
14	235542	46.450279462259	0.001
14	236190	46.500279462259	0.002
14	236210	46.550279462259	0.001
14	236779	46.600279462259	0.002
14	236803	46.650279462259	0.001
14	237373	46.700279462259	0.002
14	237397	46.750279462259	0.001
14	238029	46.800279462259	0.002
14	238049	46.850279462259	0.001
14	238634	46.900279462259	0.002
14	238658	46.950279462259	0.001
14	239223	47.000279462259	0.002
14	239247	47.050279462259	0.001
14	239890	47.100279462259	0.002
14	239910	47.150279462259	0.001
14	240484	47.200279462259	0.002
14	240508	47.250279462259	0.001
14	241067	47.300279462259	0.002
14	241091	47.350279462259	0.001
14	241717	47.400279462259	0.002
14	241737	47.450279462259	0.001
14	242311	47.500279462259	0.002
14	242335	47.550279462259	0.001
14	242905	47.600279462259	0.002
14	242929	47.650279462259	0.001
14	243566	47.700279462259	0.002
14	243586	47.750279462259	0.001
14	244149	47.800279462259	0.002
14	244173	47.850279462259	0.001
14	244727	47.900279462259	0.002
14	244751	47.950279462259	0.001
14	245394	48.000279462259	0.002
14	245414	48.050279462259	0.001
14	246004	48.100279462259	0.002
14	246028	48.150279462259	0.001
14	246587	48.200279462259	0.002
14	246611	48.250279462259	0.001
14	247270	48.300279462259	0.002
14	247290	48.350279462259	0.001
14	247853	48.400279462259	0.002
14	247877	48.450279462259	0.001
14	248436	48.500279462259	0.002
14	248460	48.550279462259	0.001
14	249097	48.600279462259	0.002
14	249117	48.650279462259	0.001
14	249675	48.700279462259	0.002
14	249699	48.750279462259	0.001
14	250242	48.800279462259	0.002
14	250266	48.850279462259	0.001
14	250925	48.900279462259	0.002
14	250945	48.950279462259	0.001
14	251519	49.000279462259	0.002
14	251543	49.050279462259	0.001
14	252091	49.100279462259	0.002
14	252115	49.150279462259	0.001
14	252768	49.200279462259	0.002
14	252788	49.250279462259	0.001
14	253357	49.300279462259	0.002
14	253381	49.350279462259	0.001
14	253946	49.400279462259	0.002
14	253970	49.450279462259	0.001
14	254618	49.500279462259	0.002
14	254638	49.550279462259	0.001
14	255201	49.600279462259	0.002
14	255225	49.650279462259	0.001
14	255768	49.700279462259	0.002
14	255792	49.750279462259	0.001
14	256419	49.800279462259	0.002
14	256439	49.850279462259	0.001
14	257013	49.900279462259	0.002
14	257037	49.950279462259	0.001
14	257591	50.000279462259	0.002
14	257615	50.050279462259	0.001
14	258258	50.100279462259	0.002
14	258278	50.150279462259	0.001
14	258863	50.200279462259	0.002
14	258887	50.250279462259	0.001
14	259446	50.300279462259	0.002
14	259470	50.350279462259	0.001
14	260113	50.400279462259	0.002
14	260133	50.450279462259	0.001
14	260718	50.500279462259	0.002
14	260742	50.550279462259	0.001
14	261312	50.600279462259	0.002
14	261336	50.650279462259	0.001
14	261952	50.700279462259	0.002
14	261972	50.750279462259	0.001
14	262541	50.800279462259	0.002
14	262565	50.850279462259	0.001
14	263108	50.900279462259	0.002
14	263132	50.950279462259	0.001
14	263780	51.000279462259	0.002
14	263800	51.050279462259	0.001
14	264358	51.100279462259	0.002
14	264382	51.150279462259	0.001
14	264936	51.200279462259	0.002
14	264960	51.250279462259	0.001
14	265603	51.300279462259	0.002
14	265623	51.350279462259	0.001
14	266192	51.400279462259	0.002
14	266216	51.450279462259	0.001
14	266775	51.500279462259	0.002
14	266799	51.550279462259	0.001
14	267442	51.600279462259	0.002
14	267462	51.650279462259	0.001
14	268047	51.700279462259	0.002
14	268071	51.750279462259	0.001
14	268636	51.800279462259	0.002
14	268660	51.850279462259	0.001
14	269286	51.900279462259	0.002
14	269306	51.950279462259	0.001
14	269896	52.000279462259	0.002
14	269920	52.050279462259	0.001
14	270474	52.100279462259	0.002
14	270498	52.150279462259	0.001
14	271141	52.200279462259	0.002
14	271161	52.250279462259	0.001
14	271730	52.300279462259	0.002
14	271754	52.350279462259	0.001
14	272319	52.400279462259	0.002
14	272343	52.450279462259	0.001
14	272986	52.500279462259	0.002
14	273006	52.550279462259	0.001
14	273575	52.600279462259	0.002
14	273599	52.650279462259	0.001
14	274147	52.700279462259	0.002
14	274171	52.750279462259	0.001
14	274819	52.800279462259	0.002
14	274839	52.850279462259	0.001
14	275397	52.900279462259	0.002
14	275421	52.950279462259	0.001
14	276002	53.000279462259	0.002
14	276026	53.050279462259	0.001
14	276653	53.100279462259	0.002
14	276673	53.150279462259	0.001
14	277242	53.200279462259	0.002
14	277266	53.250279462259	0.001
14	277825	53.300279462259	0.002
14	277849	53.350279462259	0.001
14	278481	53.400279462259	0.002
14	278501	53.450279462259	0.001
14	279075	53.500279462259	0.002
14	279099	53.550279462259	0.001
14	279648	53.600279462259	0.002
14	279672	53.650279462259	0.001
14	280331	53.700279462259	0.002
14	280351	53.750279462259	0.001
14	280941	53.800279462259	0.002
14	280965	53.850279462259	0.001
14	281535	53.900279462259	0.002
14	281559	53.950279462259	0.001
14	282207	54.000279462259	0.002
14	282227	54.050279462259	0.001
14	282812	54.100279462259	0.002
14	282836	54.150279462259	0.001
14	283411	54.200279462259	0.002
14	283435	54.250279462259	0.001
14	284094	54.300279462259	0.002
14	284114	54.350279462259	0.001
14	284677	54.400279462259	0.002
14	284701	54.450279462259	0.001
14	285260	54.500279462259	0.002
14	285284	54.550279462259	0.001
14	285916	54.600279462259	0.002
14	285936	54.650279462259	0.001
14	286499	54.700279462259	0.002
14	286523	54.750279462259	0.001
14	287093	54.800279462259	0.002
14	287117	54.850279462259	0.001
14	287760	54.900279462259	0.002
14	287780	54.950279462259	0.001
14	288365	55.000279462259	0.002
14	288389	55.050279462259	0.001
14	288954	55.100279462259	0.002
14	288978	55.150279462259	0.001
14	289642	55.200279462259	0.002
14	289662	55.250279462259	0.001
14	290231	55.300279462259	0.002
14	290255	55.350279462259	0.001
14	290809	55.400279462259	0.002
14	290833	55.450279462259	0.001
14	291470	55.500279462259	0.002
14	291490	55.550279462259	0.001
14	292059	55.600279462259	0.002
14	292083	55.650279462259	0.001
14	292632	55.700279462259	0.002
14	292656	55.750279462259	0.001
14	293299	55.800279462259	0.002
14	293319	55.850279462259	0.001
14	293893	55.900279462259	0.002
14	293917	55.950279462259	0.001
14	294455	56.000279462259	0.002
14	294479	56.050279462259	0.001
14	295127	56.100279462259	0.002
14	295147	56.150279462259	0.001
14	295716	56.200279462259	0.002
14	295740	56.250279462259	0.001
14	296294	56.300279462259	0.002
14	296318	56.350279462259	0.001
14	296945	56.400279462259	0.002
14	296965	56.450279462259	0.001
14	297539	56.500279462259	0.002
14	297563	56.550279462259	0.001
14	298133	56.600279462259	0.002
14	298157	56.650279462259	0.001
14	298789	56.700279462259	0.002
14	298809	56.750279462259	0.001
14	299383	56.800279462259	0.002
14	299407	56.850279462259	0.001
14	299961	56.900279462259	0.002
14	299985	56.950279462259	0.001
14	300628	57.000279462259	0.002
14	300648	57.050279462259	0.001
14	301238	57.100279462259	0.002
14	301262	57.150279462259	0.001
14	301827	57.200279462259	0.002
14	301851	57.250279462259	0.001
14	302494	57.300279462259	0.002
14	302514	57.350279462259	0.001
14	303104	57.400279462259	0.002
14	303128	57.450279462259	0.001
14	303682	57.500279462259	0.002
14	303706	57.550279462259	0.001
14	304327	57.600279462259	0.002
14	304347	57.650279462259	0.001
14	304905	57.700279462259	0.002
14	304929	57.750279462259	0.001
14	305488	57.800279462259	0.002
14	305512	57.850279462259	0.001
14	306144	57.900279462259	0.002
14	306164	57.950279462259	0.001
14	306733	58.000279462259	0.002
14	306757	58.050279462259	0.001
14	307316	58.100279462259	0.002
14	307340	58.150279462259	0.001
14	307967	58.200279462259	0.002
14	307987	58.250279462259	0.001
14	308572	58.300279462259	0.002
14	308596	58.350279462259	0.001
14	309150	58.400279462259	0.002
14	309174	58.450279462259	0.001
14	309811	58.500279462259	0.002
14	309831	58.550279462259	0.001
14	310416	58.600279462259	0.002
14	310440	58.650279462259	0.001
14	310999	58.700279462259	0.002
14	311023	58.750279462259	0.001
14	311660	58.800279462259	0.002
14	311680	58.850279462259	0.001
14	312238	58.900279462259	0.002
14	312262	58.950279462259	0.001
14	312832	59.000279462259	0.002
14	312856	59.050279462259	0.001
14	313499	59.100279462259	0.002
14	313519	59.150279462259	0.001
14	314104	59.200279462259	0.002
14	314128	59.250279462259	0.001
14	314709	59.300279462259	0.002
14	314733	59.350279462259	0.001
14	315359	59.400279462259	0.002
14	315379	59.450279462259	0.001
14	315969	59.500279462259	0.002
14	315993	59.550279462259	0.001
14	316547	59.600279462259	0.002
14	316571	59.650279462259	0.001
14	317214	59.700279462259	0.002
14	317234	59.750279462259	0.001
14	317803	59.800279462259	0.002
14	317827	59.850279462259	0.001
14	318370	59.900279462259	0.002
14	318394	59.950279462259	0.001
14	319036	60.000279462259	0.002
14	319056	60.050279462259	0.001
14	319625	60.100279462259	0.002
14	319649	60.150279462259	0.001
14	320219	60.200279462259	0.002
14	320243	60.250279462259	0.001
14	320902	60.300279462259	0.002
14	320922	60.350279462259	0.001
14	321491	60.400279462259	0.002
14	321515	60.450279462259	0.001
14	322053	60.500279462259	0.002
14	322077	60.550279462259	0.001
14	322725	60.600279462259	0.002
14	322745	60.650279462259	0.001
14	323346	60.700279462259	0.002
14	323370	60.750279462259	0.001
14	323924	60.800279462259	0.002
14	323948	60.850279462259	0.001
14	324607	60.900279462259	0.002
14	324627	60.950279462259	0.001
14	325212	61.000279462259	0.002
14	325236	61.050279462259	0.001
14	325774	61.100279462259	0.002
14	325798	61.150279462259	0.001
14	326419	61.200279462259	0.002
14	326439	61.250279462259	0.001
14	327024	61.300279462259	0.002
14	327048	61.350279462259	0.001
14	327618	61.400279462259	0.002
14	327642	61.450279462259	0.001
14	328285	61.500279462259	0.002
14	328305	61.550279462259	0.001
14	328894	61.600279462259	0.002
14	328914	61.650279462259	0.001
14	329308	61.700279462259	0.002
14	329327	61.750279462259	0.001
14	329800	61.800279462259	0.002
14	329816	61.850279462259	0.001
14	330195	61.900279462259	0.002
14	330215	61.950279462259	0.001
14	330622	62.000279462259	0.002
14	330641	62.050279462259	0.001
14	331101	62.100279462259	0.002
14	331117	62.150279462259	0.001
14	331496	62.200279462259	0.002
14	331516	62.250279462259	0.001
14	331910	62.300279462259	0.002
14	331929	62.350279462259	0.001
14	332371	62.400279462259	0.002
14	332387	62.450279462259	0.001
14	332766	62.500279462259	0.002
14	332786	62.550279462259	0.001
14	333180	62.600279462259	0.002
14	333199	62.650279462259	0.001
14	333672	62.700279462259	0.002
14	333688	62.750279462259	0.001
14	334067	62.800279462259	0.002
14	334087	62.850279462259	0.001
14	334481	62.900279462259	0.002
14	334500	62.950279462259	0.001
14	334960	63.000279462259	0.002
14	334976	63.050279462259	0.001
14	335342	63.100279462259	0.002
14	335362	63.150279462259	0.001
14	335760	63.200279462259	0.002
14	335779	63.250279462259	0.001
14	336239	63.300279462259	0.002
14	336255	63.350279462259	0.001
14	336634	63.400279462259	0.002
14	336654	63.450279462259	0.001
14	337048	63.500279462259	0.002
14	337067	63.550279462259	0.001
14	337531	63.600279462259	0.002
14	337547	63.650279462259	0.001
14	337926	63.700279462259	0.002
14	337946	63.750279462259	0.001
14	338340	63.800279462259	0.002
14	338359	63.850279462259	0.001
14	338810	63.900279462259	0.002
14	338826	63.950279462259	0.001
14	339205	64.000279462259	0.002
14	339225	64.050279462259	0.001
14	339623	64.100279462259	0.002
14	339642	64.150279462259	0.001
14	340093	64.200279462259	0.002
14	340109	64.250279462259	0.001
14	340488	64.300279462259	0.002
14	340508	64.350279462259	0.001
14	340915	64.400279462259	0.002
14	340934	64.450279462259	0.001
14	341420	64.500279462259	0.002
14	341436	64.550279462259	0.001
14	341815	64.600279462259	0.002
14	341835	64.650279462259	0.001
14	342229	64.700279462259	0.002
14	342243	64.750279462259	0.001
14	342514	64.800279462259	0.002
14	342527	64.850279462259	0.001
14	342767	64.900279462259	0.002
14	342782	64.950279462259	0.001
14	343046	65.000279462259	0.002
14	343060	65.050279462259	0.001
14	343341	65.100279462259	0.002
14	343354	65.150279462259	0.001
14	343584	65.200279462259	0.002
14	343599	65.250279462259	0.001
14	343853	65.300279462259	0.002
14	343867	65.350279462259	0.001
14	344148	65.400279462259	0.002
14	344161	65.450279462259	0.001
14	344391	65.500279462259	0.002
14	344406	65.550279462259	0.001
14	344660	65.600279462259	0.002
14	344674	65.650279462259	0.001
14	344955	65.700279462259	0.002
14	344968	65.750279462259	0.001
14	345208	65.800279462259	0.002
14	345223	65.850279462259	0.001
14	345487	65.900279462259	0.002
14	345501	65.950279462259	0.001
14	345782	66.000279462259	0.002
14	345795	66.050279462259	0.001
14	346035	66.100279462259	0.002
14	346050	66.150279462259	0.001
14	346304	66.200279462259	0.002
14	346318	66.250279462259	0.001
14	346592	66.300279462259	0.002
14	346605	66.350279462259	0.001
14	346835	66.400279462259	0.002
14	346850	66.450279462259	0.001
14	347104	66.500279462259	0.002
14	347118	66.550279462259	0.001
14	347389	66.600279462259	0.002
14	347402	66.650279462259	0.001
14	347632	66.700279462259	0.002
14	347647	66.750279462259	0.001
14	347901	66.800279462259	0.002
14	347915	66.850279462259	0.001
14	348196	66.900279462259	0.002
14	348209	66.950279462259	0.001
14	348439	67.000279462259	0.002
14	348454	67.050279462259	0.001
14	348708	67.100279462259	0.002
14	348722	67.150279462259	0.001
14	348993	67.200279462259	0.002
14	349006	67.250279462259	0.001
14	349246	67.300279462259	0.002
14	349261	67.350279462259	0.001
14	349515	67.400279462259	0.002
14	349529	67.450279462259	0.001
14	349820	67.500279462259	0.002
14	349833	67.550279462259	0.001
14	350062	67.600279462259	0.002
14	350072	67.650279462259	0.001
14	350215	67.700279462259	0.002
14	350225	67.750279462259	0.001
14	350369	67.800279462259	0.002
14	350378	67.850279462259	0.001
14	350503	67.900279462259	0.002
14	350513	67.950279462259	0.001
14	350656	68.000279462259	0.002
14	350666	68.050279462259	0.001
14	350803	68.100279462259	0.002
14	350812	68.150279462259	0.001
14	350937	68.200279462259	0.002
14	350947	68.250279462259	0.001
14	351083	68.300279462259	0.002
14	351093	68.350279462259	0.001
14	351237	68.400279462259	0.002
14	351246	68.450279462259	0.001
14	351371	68.500279462259	0.002
14	351381	68.550279462259	0.001
14	351517	68.600279462259	0.002
14	351527	68.650279462259	0.001
14	351671	68.700279462259	0.002
14	351680	68.750279462259	0.001
14	351805	68.800279462259	0.002
14	351815	68.850279462259	0.001
14	351951	68.900279462259	0.002
14	351961	68.950279462259	0.001
14	352098	69.000279462259	0.002
14	352107	69.050279462259	0.001
14	352232	69.100279462259	0.002
14	352242	69.150279462259	0.001
14	352385	69.200279462259	0.002
14	352395	69.250279462259	0.001
14	352539	69.300279462259	0.002
14	352548	69.350279462259	0.001
14	352673	69.400279462259	0.002
14	352683	69.450279462259	0.001
14	352826	69.500279462259	0.002
14	352836	69.550279462259	0.001
14	352980	69.600279462259	0.002
14	352989	69.650279462259	0.001
14	353114	69.700279462259	0.002
14	353124	69.750279462259	0.001
14	353267	69.800279462259	0.002
14	353277	69.850279462259	0.001
14	353414	69.900279462259	0.002
14	353423	69.950279462259	0.001
14	353548	70.000279462259	0.002
14	353558	70.050279462259	0.001
14	353701	70.100279462259	0.002
14	353711	70.150279462259	0.001
14	353855	70.200279462259	0.002
14	353864	70.250279462259	0.001
14	353989	70.300279462259	0.002
14	353999	70.350279462259	0.001
14	354142	70.400279462259	0.002
14	354152	70.450279462259	0.001
14	354296	70.500279462259	0.002
14	354305	70.550279462259	0.001
14	354430	70.600279462259	0.002
14	354440	70.650279462259	0.001
14	354575	70.700279462259	0.002
14	354580	70.750279462259	0.001
14	354625	70.800279462259	0.002
14	354631	70.850279462259	0.001
14	354676	70.900279462259	0.002
14	354681	70.950279462259	0.001
14	354740	71.000279462259	0.002
14	354745	71.050279462259	0.001
14	354790	71.100279462259	0.002
14	354796	71.150279462259	0.001
14	354841	71.200279462259	0.002
14	354846	71.250279462259	0.001
14	354905	71.300279462259	0.002
14	354910	71.350279462259	0.001
14	354955	71.400279462259	0.002
14	354961	71.450279462259	0.001
14	355006	71.500279462259	0.002
14	355011	71.550279462259	0.001
14	355070	71.600279462259	0.002
14	355075	71.650279462259	0.001
14	355120	71.700279462259	0.002
14	355126	71.750279462259	0.001
14	355171	71.800279462259	0.002
14	355176	71.850279462259	0.001
14	355235	71.900279462259	0.002
14	355240	71.950279462259	0.001
14	355285	72.000279462259	0.002
14	355291	72.050279462259	0.001
14	355336	72.100279462259	0.002
14	355341	72.150279462259	0.001
14	355400	72.200279462259	0.002
14	355405	72.250279462259	0.001
14	355450	72.300279462259	0.002
14	355456	72.350279462259	0.001
14	355501	72.400279462259	0.002
14	355506	72.450279462259	0.001
14	355565	72.500279462259	0.002
14	355570	72.550279462259	0.001
14	355615	72.600279462259	0.002
14	355621	72.650279462259	0.001
14	355666	72.700279462259	0.002
14	355671	72.750279462259	0.001
14	355730	72.800279462259	0.002
14	355735	72.850279462259	0.001
14	355780	72.900279462259	0.002
14	355786	72.950279462259	0.001
14	355831	73.000279462259	0.002
14	355836	73.050279462259	0.001
14	355895	73.100279462259	0.002
14	355900	73.150279462259	0.001
14	355945	73.200279462259	0.002
14	355951	73.250279462259	0.001
14	355996	73.300279462259	0.002
14	356001	73.350279462259	0.001
14	356060	73.400279462259	0.002
14	356065	73.450279462259	0.001
14	356110	73.500279462259	0.002
14	356116	73.550279462259	0.001
14	356160	73.600279462259	0.002
14	356161	73.650279462259	0.001
14	356162	73.700279462259	0.002
14	356163	73.750279462259	0.001
14	356164	73.800279462259	0.002
14	356165	73.850279462259	0.001
14	356166	73.900279462259	0.002
14	356167	73.950279462259	0.001
14	356168	74.000279462259	0.002
14	356169	74.050279462259	0.001
14	356170	74.100279462259	0.002
14	356171	74.150279462259	0.001
14	356172	74.200279462259	0.002
14	356173	74.250279462259	0.001
14	356174	74.300279462259	0.002
14	356175	74.350279462259	0.001
14	356176	74.400279462259	0.002
14	356177	74.450279462259	0.001
14	356178	74.500279462259	0.002
14	356179	74.550279462259	0.001
14	356180	74.600279462259	0.002
14	356181	74.650279462259	0.001
14	356182	74.700279462259	0.002
14	356183	74.750279462259	0.001
14	356184	74.800279462259	0.002
14	356185	74.850279462259	0.001
14	356186	74.900279462259	0.002
14	356187	74.950279462259	0.001
14	356188	75.000279462259	0.002
14	356189	75.050279462259	0.001
14	356190	75.100279462259	0.002
14	356191	75.150279462259	0.001
14	356192	75.200279462259	0.002
14	356193	75.250279462259	0.001
14	356194	75.300279462259	0.002
14	356195	75.350279462259	0.001
14	356196	75.400279462259	0.002
14	356197	75.450279462259	0.001
14	356198	75.500279462259	0.002
14	356199	75.550279462259	0.001
14	356200	75.600279462259	0.002
14	356201	75.650279462259	0.001
14	356202	75.700279462259	0.002
14	356203	75.750279462259	0.001
14	356204	75.800279462259	0.002
14	356205	75.850279462259	0.001
14	356206	75.900279462259	0.002
14	356207	75.950279462259	0.001
