version 2
run VoIP-20ms_200b-0-20160909-09:29:24-5767
attr configname VoIP-20ms_200b
attr datetime 20160909-09:29:24
attr experiment VoIP-20ms_200b
attr inifile omnetpp.ini
attr iterationvars ""
attr iterationvars2 $repetition=0
attr measurement ""
attr network SymScenerio
attr processid 5767
attr repetition 0
attr replication #0
attr resultdir results
attr runnumber 0
attr seedset 0
param **.coreDebug false
param **.debug false
param *.**.nic.mac1609_4.bitrate 18Mbps
param *.**.nic.mac1609_4.txPower 20mW
param *.**.nic.mac1609_4.useServiceChannel true
param *.**.nic.phy80211p.analogueModels "xmldoc(\"config.xml\")"
param *.**.nic.phy80211p.decider "xmldoc(\"config.xml\")"
param *.**.nic.phy80211p.sensitivity -89dBm
param *.**.nic.phy80211p.thermalNoise -110dBm
param *.**.nic.phy80211p.usePropagationDelay true
param *.**.nic.phy80211p.useThermalNoise true
param *.annotations.draw false
param *.connectionManager.alpha 2.0
param *.connectionManager.carrierFrequency "5.890e9 Hz"
param *.connectionManager.pMax 20mW
param *.connectionManager.sat -89dBm
param *.connectionManager.sendDirect true
param *.manager.autoShutdown true
param *.manager.host "\"localhost\""
param *.manager.launchConfig "xmldoc(\"map.launchd.xml\")"
param *.manager.margin 25
param *.manager.moduleDisplayString "\"\""
param *.manager.moduleName "\"node\""
param *.manager.moduleType "\"symulacja.veins.nodes.Car\""
param *.manager.port 9999
param *.manager.updateInterval 0.1s
param *.node[*].appl.beaconInterval 1s
param *.node[*].appl.beaconPriority 3
param *.node[*].appl.dataOnSch false
param *.node[*].appl.dataPriority 2
param *.node[*].appl.debug false
param *.node[*].appl.maxOffset 0.005s
param *.node[*].appl.sendBeacons false
param *.node[*].appl.sendData true
param *.node[*].appl.sendVoIP true
param *.node[*].appl.voipInterval 0.020s
param *.node[*].appl.voipLengthBits "200 bits"
param *.node[*].appl.voipOnSch true
param *.node[*].appl.voipPriority 3
param *.node[*].applType "\"Sym11p\""
param *.node[*].veinsmobility.x 0
param *.node[*].veinsmobility.y 0
param *.node[*].veinsmobility.z 1.895
param *.node[*].veinsmobilityType "\"symulacja.veins.modules.mobility.traci.TraCIMobility\""
param *.playgroundSizeX 9000m
param *.playgroundSizeY 9000m
param *.playgroundSizeZ 50m
param *.rsu[*].appl.beaconInterval 1s
param *.rsu[*].appl.beaconPriority 3
param *.rsu[*].appl.dataOnSch false
param *.rsu[*].appl.dataPriority 2
param *.rsu[*].appl.debug false
param *.rsu[*].appl.headerLength "256 bit"
param *.rsu[*].appl.maxOffset 0.005s
param *.rsu[*].appl.sendBeacons false
param *.rsu[*].appl.sendData false
param *.rsu[*].appl.sendVoIP false
param *.rsu[*].applType "\"SymRSU11p\""
param *.rsu[0].mobility.x 2160
param *.rsu[0].mobility.y 3100
param *.rsu[0].mobility.z 3
param *.world.use2D false
param *.world.useTorus false

vector 9  SymScenerio.rsu[0].nic.mac1609_4  "Interwały kanałów"  ETV
vector 18  SymScenerio.node[0].veinsmobility  posx  ETV
vector 19  SymScenerio.node[0].veinsmobility  posy  ETV
vector 17  SymScenerio.node[0].nic.mac1609_4  "Interwały kanałów"  ETV
vector 20  SymScenerio.node[0].veinsmobility  speed  ETV
vector 21  SymScenerio.node[0].veinsmobility  acceleration  ETV
vector 22  SymScenerio.node[0].veinsmobility  co2emission  ETV
vector 10  SymScenerio.node[0].appl  "TX Packets"  ETV
vector 11  SymScenerio.node[0].appl  "TX Total"  ETV
vector 12  SymScenerio.node[0].appl  Pakietyzacja  ETV
vector 3  SymScenerio.rsu[0].appl  "RX Packets"  ETV
vector 4  SymScenerio.rsu[0].appl  "RX Packet"  ETV
vector 31  SymScenerio.node[1].veinsmobility  posx  ETV
vector 32  SymScenerio.node[1].veinsmobility  posy  ETV
vector 30  SymScenerio.node[1].nic.mac1609_4  "Interwały kanałów"  ETV
vector 33  SymScenerio.node[1].veinsmobility  speed  ETV
vector 34  SymScenerio.node[1].veinsmobility  acceleration  ETV
vector 35  SymScenerio.node[1].veinsmobility  co2emission  ETV
vector 23  SymScenerio.node[1].appl  "TX Packets"  ETV
vector 24  SymScenerio.node[1].appl  "TX Total"  ETV
vector 25  SymScenerio.node[1].appl  Pakietyzacja  ETV
vector 44  SymScenerio.node[2].veinsmobility  posx  ETV
vector 45  SymScenerio.node[2].veinsmobility  posy  ETV
vector 43  SymScenerio.node[2].nic.mac1609_4  "Interwały kanałów"  ETV
vector 46  SymScenerio.node[2].veinsmobility  speed  ETV
vector 36  SymScenerio.node[2].appl  "TX Packets"  ETV
vector 37  SymScenerio.node[2].appl  "TX Total"  ETV
vector 38  SymScenerio.node[2].appl  Pakietyzacja  ETV
vector 47  SymScenerio.node[2].veinsmobility  acceleration  ETV
vector 48  SymScenerio.node[2].veinsmobility  co2emission  ETV
vector 57  SymScenerio.node[3].veinsmobility  posx  ETV
vector 58  SymScenerio.node[3].veinsmobility  posy  ETV
vector 56  SymScenerio.node[3].nic.mac1609_4  "Interwały kanałów"  ETV
vector 59  SymScenerio.node[3].veinsmobility  speed  ETV
vector 60  SymScenerio.node[3].veinsmobility  acceleration  ETV
vector 61  SymScenerio.node[3].veinsmobility  co2emission  ETV
vector 49  SymScenerio.node[3].appl  "TX Packets"  ETV
vector 50  SymScenerio.node[3].appl  "TX Total"  ETV
vector 51  SymScenerio.node[3].appl  Pakietyzacja  ETV
vector 70  SymScenerio.node[4].veinsmobility  posx  ETV
vector 71  SymScenerio.node[4].veinsmobility  posy  ETV
vector 69  SymScenerio.node[4].nic.mac1609_4  "Interwały kanałów"  ETV
vector 72  SymScenerio.node[4].veinsmobility  speed  ETV
vector 62  SymScenerio.node[4].appl  "TX Packets"  ETV
vector 63  SymScenerio.node[4].appl  "TX Total"  ETV
vector 64  SymScenerio.node[4].appl  Pakietyzacja  ETV
vector 73  SymScenerio.node[4].veinsmobility  acceleration  ETV
vector 74  SymScenerio.node[4].veinsmobility  co2emission  ETV
12	25	0.531827398394	1.002
12	29	0.551827398394	1.002
12	57	0.571827398394	1.002
12	72	0.591827398394	1.002
12	90	0.611827398394	1.002
12	92	0.631827398394	1.002
12	96	0.651827398394	1.002
12	137	0.671827398394	1.002
12	152	0.691827398394	1.002
12	170	0.711827398394	1.002
12	172	0.731827398394	1.002
12	176	0.751827398394	1.002
12	217	0.771827398394	1.002
12	232	0.791827398394	1.002
12	250	0.811827398394	1.002
12	252	0.831827398394	1.002
12	256	0.851827398394	1.002
12	297	0.871827398394	1.002
12	312	0.891827398394	1.002
12	330	0.911827398394	1.002
12	332	0.931827398394	1.002
12	336	0.951827398394	1.002
12	377	0.971827398394	1.002
12	392	0.991827398394	1.002
12	410	1.011827398394	1.002
12	412	1.031827398394	1.002
12	416	1.051827398394	1.002
12	457	1.071827398394	1.002
12	472	1.091827398394	1.002
12	490	1.111827398394	1.002
12	492	1.131827398394	1.002
12	496	1.151827398394	1.002
12	537	1.171827398394	1.002
12	552	1.191827398394	1.002
12	570	1.211827398394	1.002
12	572	1.231827398394	1.002
12	576	1.251827398394	1.002
12	617	1.271827398394	1.002
12	632	1.291827398394	1.002
12	650	1.311827398394	1.002
12	652	1.331827398394	1.002
12	656	1.351827398394	1.002
12	697	1.371827398394	1.002
12	712	1.391827398394	1.002
12	730	1.411827398394	1.002
12	732	1.431827398394	1.002
12	736	1.451827398394	1.002
12	777	1.471827398394	1.002
12	792	1.491827398394	1.002
12	810	1.511827398394	1.002
12	812	1.531827398394	1.002
12	816	1.551827398394	1.002
12	857	1.571827398394	1.002
12	872	1.591827398394	1.002
12	890	1.611827398394	1.002
12	892	1.631827398394	1.002
12	896	1.651827398394	1.002
12	937	1.671827398394	1.002
12	952	1.691827398394	1.002
12	970	1.711827398394	1.002
12	972	1.731827398394	1.002
12	976	1.751827398394	1.002
12	1017	1.771827398394	1.002
12	1032	1.791827398394	1.002
12	1050	1.811827398394	1.002
12	1052	1.831827398394	1.002
12	1056	1.851827398394	1.002
12	1097	1.871827398394	1.002
12	1112	1.891827398394	1.002
12	1130	1.911827398394	1.002
12	1132	1.931827398394	1.002
12	1136	1.951827398394	1.002
12	1177	1.971827398394	1.002
12	1192	1.991827398394	1.002
12	1210	2.011827398394	1.002
12	1212	2.031827398394	1.002
12	1216	2.051827398394	1.002
12	1257	2.071827398394	1.002
12	1272	2.091827398394	1.002
12	1290	2.111827398394	1.002
12	1292	2.131827398394	1.002
12	1296	2.151827398394	1.002
12	1337	2.171827398394	1.002
12	1352	2.191827398394	1.002
12	1370	2.211827398394	1.002
12	1372	2.231827398394	1.002
12	1376	2.251827398394	1.002
12	1417	2.271827398394	1.002
12	1432	2.291827398394	1.002
12	1450	2.311827398394	1.002
12	1452	2.331827398394	1.002
12	1456	2.351827398394	1.002
12	1497	2.371827398394	1.002
12	1512	2.391827398394	1.002
12	1530	2.411827398394	1.002
12	1532	2.431827398394	1.002
12	1536	2.451827398394	1.002
12	1577	2.471827398394	1.002
12	1592	2.491827398394	1.002
12	1610	2.511827398394	1.002
12	1612	2.531827398394	1.002
12	1616	2.551827398394	1.002
12	1657	2.571827398394	1.002
12	1672	2.591827398394	1.002
12	1690	2.611827398394	1.002
12	1692	2.631827398394	1.002
12	1696	2.651827398394	1.002
12	1737	2.671827398394	1.002
12	1752	2.691827398394	1.002
12	1770	2.711827398394	1.002
12	1772	2.731827398394	1.002
12	1776	2.751827398394	1.002
12	1817	2.771827398394	1.002
12	1832	2.791827398394	1.002
12	1850	2.811827398394	1.002
12	1852	2.831827398394	1.002
12	1856	2.851827398394	1.002
12	1897	2.871827398394	1.002
12	1912	2.891827398394	1.002
12	1930	2.911827398394	1.002
12	1932	2.931827398394	1.002
12	1936	2.951827398394	1.002
12	1977	2.971827398394	1.002
12	1992	2.991827398394	1.002
12	2010	3.011827398394	1.002
12	2012	3.031827398394	1.002
12	2016	3.051827398394	1.002
12	2057	3.071827398394	1.002
12	2072	3.091827398394	1.002
12	2090	3.111827398394	1.002
12	2092	3.131827398394	1.002
12	2097	3.151827398394	1.002
12	2156	3.171827398394	1.002
12	2177	3.191827398394	1.002
12	2202	3.211827398394	1.002
12	2204	3.231827398394	1.002
12	2209	3.251827398394	1.002
12	2268	3.271827398394	1.002
12	2289	3.291827398394	1.002
12	2314	3.311827398394	1.002
12	2316	3.331827398394	1.002
12	2323	3.351827398394	1.002
12	2422	3.371827398394	1.002
12	2464	3.391827398394	1.002
12	2510	3.411827398394	1.002
12	2514	3.431827398394	1.002
12	2521	3.451827398394	1.002
12	2639	3.471827398394	1.002
12	2681	3.491827398394	1.002
12	2727	3.511827398394	1.002
12	2731	3.531827398394	1.002
12	2738	3.551827398394	1.002
12	2856	3.571827398394	1.002
12	2898	3.591827398394	1.002
12	2944	3.611827398394	1.002
12	2948	3.631827398394	1.002
12	2955	3.651827398394	1.002
12	3073	3.671827398394	1.002
12	3115	3.691827398394	1.002
12	3161	3.711827398394	1.002
12	3165	3.731827398394	1.002
12	3172	3.751827398394	1.002
12	3290	3.771827398394	1.002
12	3332	3.791827398394	1.002
12	3378	3.811827398394	1.002
12	3382	3.831827398394	1.002
12	3389	3.851827398394	1.002
12	3500	3.871827398394	1.002
12	3542	3.891827398394	1.002
12	3588	3.911827398394	1.002
12	3592	3.931827398394	1.002
12	3599	3.951827398394	1.002
12	3717	3.971827398394	1.002
12	3759	3.991827398394	1.002
12	3805	4.011827398394	1.002
12	3809	4.031827398394	1.002
12	3816	4.051827398394	1.002
12	3934	4.071827398394	1.002
12	3976	4.091827398394	1.002
12	4022	4.111827398394	1.002
12	4026	4.131827398394	1.002
12	4033	4.151827398394	1.002
12	4151	4.171827398394	1.002
12	4193	4.191827398394	1.002
12	4239	4.211827398394	1.002
12	4243	4.231827398394	1.002
12	4250	4.251827398394	1.002
12	4361	4.271827398394	1.002
12	4403	4.291827398394	1.002
12	4449	4.311827398394	1.002
12	4453	4.331827398394	1.002
12	4460	4.351827398394	1.002
12	4578	4.371827398394	1.002
12	4620	4.391827398394	1.002
12	4666	4.411827398394	1.002
12	4670	4.431827398394	1.002
12	4677	4.451827398394	1.002
12	4788	4.471827398394	1.002
12	4830	4.491827398394	1.002
12	4876	4.511827398394	1.002
12	4880	4.531827398394	1.002
12	4887	4.551827398394	1.002
12	4998	4.571827398394	1.002
12	5040	4.591827398394	1.002
12	5086	4.611827398394	1.002
12	5090	4.631827398394	1.002
12	5097	4.651827398394	1.002
12	5215	4.671827398394	1.002
12	5257	4.691827398394	1.002
12	5303	4.711827398394	1.002
12	5307	4.731827398394	1.002
12	5314	4.751827398394	1.002
12	5425	4.771827398394	1.002
12	5467	4.791827398394	1.002
12	5513	4.811827398394	1.002
12	5517	4.831827398394	1.002
12	5524	4.851827398394	1.002
12	5642	4.871827398394	1.002
12	5684	4.891827398394	1.002
12	5730	4.911827398394	1.002
12	5734	4.931827398394	1.002
12	5741	4.951827398394	1.002
12	5852	4.971827398394	1.002
12	5894	4.991827398394	1.002
12	5940	5.011827398394	1.002
12	5944	5.031827398394	1.002
12	5951	5.051827398394	1.002
12	6062	5.071827398394	1.002
12	6104	5.091827398394	1.002
12	6150	5.111827398394	1.002
12	6154	5.131827398394	1.002
12	6161	5.151827398394	1.002
12	6279	5.171827398394	1.002
12	6321	5.191827398394	1.002
12	6367	5.211827398394	1.002
12	6371	5.231827398394	1.002
12	6378	5.251827398394	1.002
12	6496	5.271827398394	1.002
12	6538	5.291827398394	1.002
12	6584	5.311827398394	1.002
12	6588	5.331827398394	1.002
12	6595	5.351827398394	1.002
12	6713	5.371827398394	1.002
12	6755	5.391827398394	1.002
12	6801	5.411827398394	1.002
12	6805	5.431827398394	1.002
12	6812	5.451827398394	1.002
12	6930	5.471827398394	1.002
12	6972	5.491827398394	1.002
12	7018	5.511827398394	1.002
12	7022	5.531827398394	1.002
12	7029	5.551827398394	1.002
12	7140	5.571827398394	1.002
12	7182	5.591827398394	1.002
12	7228	5.611827398394	1.002
12	7232	5.631827398394	1.002
12	7239	5.651827398394	1.002
12	7357	5.671827398394	1.002
12	7399	5.691827398394	1.002
12	7445	5.711827398394	1.002
12	7449	5.731827398394	1.002
12	7456	5.751827398394	1.002
12	7574	5.771827398394	1.002
12	7616	5.791827398394	1.002
12	7662	5.811827398394	1.002
12	7666	5.831827398394	1.002
12	7673	5.851827398394	1.002
12	7791	5.871827398394	1.002
12	7833	5.891827398394	1.002
12	7879	5.911827398394	1.002
12	7883	5.931827398394	1.002
12	7890	5.951827398394	1.002
12	8001	5.971827398394	1.002
12	8043	5.991827398394	1.002
12	8089	6.011827398394	1.002
12	8093	6.031827398394	1.002
12	8100	6.051827398394	1.002
12	8218	6.071827398394	1.002
12	8260	6.091827398394	1.002
12	8306	6.111827398394	1.002
12	8310	6.131827398394	1.002
12	8318	6.151827398394	1.002
12	8472	6.171827398394	1.002
12	8526	6.191827398394	1.002
12	8585	6.211827398394	1.002
12	8589	6.231827398394	1.002
12	8597	6.251827398394	1.002
12	8768	6.271827398394	1.002
12	8849	6.291827398394	1.002
12	8935	6.311827398394	1.002
12	8941	6.331827398394	1.002
12	8951	6.351827398394	1.002
12	9162	6.371827398394	1.002
12	9243	6.391827398394	1.002
12	9329	6.411827398394	1.002
12	9335	6.431827398394	1.002
12	9345	6.451827398394	1.002
12	9566	6.471827398394	1.002
12	9647	6.491827398394	1.002
12	9733	6.511827398394	1.002
12	9739	6.531827398394	1.002
12	9749	6.551827398394	1.002
12	9970	6.571827398394	1.002
12	10051	6.591827398394	1.002
12	10137	6.611827398394	1.002
12	10143	6.631827398394	1.002
12	10153	6.651827398394	1.002
12	10374	6.671827398394	1.002
12	10455	6.691827398394	1.002
12	10541	6.711827398394	1.002
12	10547	6.731827398394	1.002
12	10557	6.751827398394	1.002
12	10768	6.771827398394	1.002
12	10849	6.791827398394	1.002
12	10935	6.811827398394	1.002
12	10941	6.831827398394	1.002
12	10951	6.851827398394	1.002
12	11172	6.871827398394	1.002
12	11253	6.891827398394	1.002
12	11339	6.911827398394	1.002
12	11345	6.931827398394	1.002
12	11355	6.951827398394	1.002
12	11576	6.971827398394	1.002
12	11657	6.991827398394	1.002
12	11743	7.011827398394	1.002
12	11749	7.031827398394	1.002
12	11759	7.051827398394	1.002
12	11980	7.071827398394	1.002
12	12061	7.091827398394	1.002
12	12147	7.111827398394	1.002
12	12153	7.131827398394	1.002
12	12163	7.151827398394	1.002
12	12384	7.171827398394	1.002
12	12465	7.191827398394	1.002
12	12551	7.211827398394	1.002
12	12557	7.231827398394	1.002
12	12567	7.251827398394	1.002
12	12798	7.271827398394	1.002
12	12879	7.291827398394	1.002
12	12965	7.311827398394	1.002
12	12971	7.331827398394	1.002
12	12981	7.351827398394	1.002
12	13202	7.371827398394	1.002
12	13283	7.391827398394	1.002
12	13369	7.411827398394	1.002
12	13375	7.431827398394	1.002
12	13385	7.451827398394	1.002
12	13596	7.471827398394	1.002
12	13677	7.491827398394	1.002
12	13763	7.511827398394	1.002
12	13769	7.531827398394	1.002
12	13779	7.551827398394	1.002
12	13990	7.571827398394	1.002
12	14071	7.591827398394	1.002
12	14157	7.611827398394	1.002
12	14163	7.631827398394	1.002
12	14173	7.651827398394	1.002
12	14394	7.671827398394	1.002
12	14475	7.691827398394	1.002
12	14561	7.711827398394	1.002
12	14567	7.731827398394	1.002
12	14577	7.751827398394	1.002
12	14791	7.771827398394	1.002
12	14872	7.791827398394	1.002
12	14958	7.811827398394	1.002
12	14964	7.831827398394	1.002
12	14974	7.851827398394	1.002
12	15195	7.871827398394	1.002
12	15276	7.891827398394	1.002
12	15362	7.911827398394	1.002
12	15368	7.931827398394	1.002
12	15378	7.951827398394	1.002
12	15599	7.971827398394	1.002
12	15680	7.991827398394	1.002
12	15766	8.011827398394	1.002
12	15772	8.031827398394	1.002
12	15782	8.051827398394	1.002
12	16003	8.071827398394	1.002
12	16084	8.091827398394	1.002
12	16170	8.111827398394	1.002
12	16176	8.131827398394	1.002
12	16186	8.151827398394	1.002
12	16417	8.171827398394	1.002
12	16498	8.191827398394	1.002
12	16584	8.211827398394	1.002
12	16590	8.231827398394	1.002
12	16600	8.251827398394	1.002
12	16821	8.271827398394	1.002
12	16902	8.291827398394	1.002
12	16988	8.311827398394	1.002
12	16994	8.331827398394	1.002
12	17004	8.351827398394	1.002
12	17225	8.371827398394	1.002
12	17306	8.391827398394	1.002
12	17392	8.411827398394	1.002
12	17398	8.431827398394	1.002
12	17408	8.451827398394	1.002
12	17629	8.471827398394	1.002
12	17710	8.491827398394	1.002
12	17796	8.511827398394	1.002
12	17802	8.531827398394	1.002
12	17812	8.551827398394	1.002
12	18016	8.571827398394	1.002
12	18097	8.591827398394	1.002
12	18183	8.611827398394	1.002
12	18189	8.631827398394	1.002
12	18199	8.651827398394	1.002
12	18410	8.671827398394	1.002
12	18491	8.691827398394	1.002
12	18577	8.711827398394	1.002
12	18583	8.731827398394	1.002
12	18593	8.751827398394	1.002
12	18814	8.771827398394	1.002
12	18895	8.791827398394	1.002
12	18981	8.811827398394	1.002
12	18987	8.831827398394	1.002
12	18997	8.851827398394	1.002
12	19208	8.871827398394	1.002
12	19289	8.891827398394	1.002
12	19375	8.911827398394	1.002
12	19381	8.931827398394	1.002
12	19391	8.951827398394	1.002
12	19602	8.971827398394	1.002
12	19683	8.991827398394	1.002
12	19769	9.011827398394	1.002
12	19775	9.031827398394	1.002
12	19785	9.051827398394	1.002
12	20016	9.071827398394	1.002
12	20097	9.091827398394	1.002
12	20183	9.111827398394	1.002
12	20189	9.131827398394	1.002
12	20200	9.151827398394	1.002
12	20485	9.171827398394	1.002
12	20584	9.191827398394	1.002
12	20689	9.211827398394	1.002
12	20695	9.231827398394	1.002
12	20706	9.251827398394	1.002
12	20978	9.271827398394	1.002
12	21077	9.291827398394	1.002
12	21182	9.311827398394	1.002
12	21188	9.331827398394	1.002
12	21199	9.351827398394	1.002
12	21472	9.371827398394	1.002
12	21571	9.391827398394	1.002
12	21676	9.411827398394	1.002
12	21682	9.431827398394	1.002
12	21693	9.451827398394	1.002
12	21952	9.471827398394	1.002
12	22051	9.491827398394	1.002
12	22156	9.511827398394	1.002
12	22162	9.531827398394	1.002
12	22173	9.551827398394	1.002
12	22446	9.571827398394	1.002
12	22545	9.591827398394	1.002
12	22650	9.611827398394	1.002
12	22656	9.631827398394	1.002
12	22667	9.651827398394	1.002
12	22930	9.671827398394	1.002
12	23029	9.691827398394	1.002
12	23134	9.711827398394	1.002
12	23140	9.731827398394	1.002
12	23151	9.751827398394	1.002
12	23414	9.771827398394	1.002
12	23513	9.791827398394	1.002
12	23618	9.811827398394	1.002
12	23624	9.831827398394	1.002
12	23635	9.851827398394	1.002
12	23907	9.871827398394	1.002
12	24006	9.891827398394	1.002
12	24111	9.911827398394	1.002
12	24117	9.931827398394	1.002
12	24128	9.951827398394	1.002
12	24446	9.971827398394	1.002
12	24578	9.991827398394	1.002
12	24685	10.011827398394	1.002
12	24693	10.031827398394	1.002
12	24706	10.051827398394	1.002
12	25091	10.071827398394	1.002
12	25223	10.091827398394	1.002
12	25330	10.111827398394	1.002
12	25338	10.131827398394	1.002
12	25351	10.151827398394	1.002
12	25736	10.171827398394	1.002
12	25868	10.191827398394	1.002
12	25975	10.211827398394	1.002
12	25983	10.231827398394	1.002
12	25996	10.251827398394	1.002
12	26381	10.271827398394	1.002
12	26513	10.291827398394	1.002
12	26620	10.311827398394	1.002
12	26628	10.331827398394	1.002
12	26641	10.351827398394	1.002
12	27039	10.371827398394	1.002
12	27171	10.391827398394	1.002
12	27278	10.411827398394	1.002
12	27286	10.431827398394	1.002
12	27299	10.451827398394	1.002
12	27684	10.471827398394	1.002
12	27816	10.491827398394	1.002
12	27923	10.511827398394	1.002
12	27931	10.531827398394	1.002
12	27944	10.551827398394	1.002
12	28316	10.571827398394	1.002
12	28448	10.591827398394	1.002
12	28555	10.611827398394	1.002
12	28563	10.631827398394	1.002
12	28576	10.651827398394	1.002
12	28952	10.671827398394	1.002
12	29084	10.691827398394	1.002
12	29191	10.711827398394	1.002
12	29199	10.731827398394	1.002
12	29212	10.751827398394	1.002
12	29610	10.771827398394	1.002
12	29742	10.791827398394	1.002
12	29849	10.811827398394	1.002
12	29857	10.831827398394	1.002
12	29870	10.851827398394	1.002
12	30268	10.871827398394	1.002
12	30400	10.891827398394	1.002
12	30507	10.911827398394	1.002
12	30515	10.931827398394	1.002
12	30528	10.951827398394	1.002
12	30917	10.971827398394	1.002
12	31049	10.991827398394	1.002
12	31156	11.011827398394	1.002
12	31164	11.031827398394	1.002
12	31177	11.051827398394	1.002
12	31562	11.071827398394	1.002
12	31694	11.091827398394	1.002
12	31801	11.111827398394	1.002
12	31809	11.131827398394	1.002
12	31822	11.151827398394	1.002
12	32198	11.171827398394	1.002
12	32330	11.191827398394	1.002
12	32437	11.211827398394	1.002
12	32445	11.231827398394	1.002
12	32458	11.251827398394	1.002
12	32843	11.271827398394	1.002
12	32975	11.291827398394	1.002
12	33082	11.311827398394	1.002
12	33090	11.331827398394	1.002
12	33103	11.351827398394	1.002
12	33514	11.371827398394	1.002
12	33646	11.391827398394	1.002
12	33753	11.411827398394	1.002
12	33761	11.431827398394	1.002
12	33774	11.451827398394	1.002
12	34163	11.471827398394	1.002
12	34295	11.491827398394	1.002
12	34402	11.511827398394	1.002
12	34410	11.531827398394	1.002
12	34423	11.551827398394	1.002
12	34821	11.571827398394	1.002
12	34953	11.591827398394	1.002
12	35060	11.611827398394	1.002
12	35068	11.631827398394	1.002
12	35081	11.651827398394	1.002
12	35453	11.671827398394	1.002
12	35585	11.691827398394	1.002
12	35692	11.711827398394	1.002
12	35700	11.731827398394	1.002
12	35713	11.751827398394	1.002
12	36111	11.771827398394	1.002
12	36243	11.791827398394	1.002
12	36350	11.811827398394	1.002
12	36358	11.831827398394	1.002
12	36371	11.851827398394	1.002
12	36743	11.871827398394	1.002
12	36875	11.891827398394	1.002
12	36982	11.911827398394	1.002
12	36990	11.931827398394	1.002
12	37003	11.951827398394	1.002
12	37401	11.971827398394	1.002
12	37533	11.991827398394	1.002
12	37640	12.011827398394	1.002
12	37648	12.031827398394	1.002
12	37661	12.051827398394	1.002
12	38033	12.071827398394	1.002
12	38165	12.091827398394	1.002
12	38272	12.111827398394	1.002
12	38280	12.131827398394	1.002
12	38294	12.151827398394	1.002
12	38751	12.171827398394	1.002
12	38907	12.191827398394	1.002
12	39033	12.211827398394	1.002
12	39041	12.231827398394	1.002
12	39057	12.251827398394	1.002
12	39579	12.271827398394	1.002
12	39774	12.291827398394	1.002
12	39902	12.311827398394	1.002
12	39912	12.331827398394	1.002
12	39928	12.351827398394	1.002
12	40536	12.371827398394	1.002
12	40731	12.391827398394	1.002
12	40859	12.411827398394	1.002
12	40869	12.431827398394	1.002
12	40885	12.451827398394	1.002
12	41461	12.471827398394	1.002
12	41656	12.491827398394	1.002
12	41784	12.511827398394	1.002
12	41794	12.531827398394	1.002
12	41810	12.551827398394	1.002
12	42375	12.571827398394	1.002
12	42570	12.591827398394	1.002
12	42698	12.611827398394	1.002
12	42708	12.631827398394	1.002
12	42724	12.651827398394	1.002
12	43293	12.671827398394	1.002
12	43488	12.691827398394	1.002
12	43616	12.711827398394	1.002
12	43626	12.731827398394	1.002
12	43642	12.751827398394	1.002
12	44220	12.771827398394	1.002
12	44415	12.791827398394	1.002
12	44543	12.811827398394	1.002
12	44553	12.831827398394	1.002
12	44569	12.851827398394	1.002
12	45138	12.871827398394	1.002
12	45333	12.891827398394	1.002
12	45461	12.911827398394	1.002
12	45471	12.931827398394	1.002
12	45487	12.951827398394	1.002
12	46067	12.971827398394	1.002
12	46262	12.991827398394	1.002
12	46390	13.011827398394	1.002
12	46400	13.031827398394	1.002
12	46416	13.051827398394	1.002
12	47012	13.071827398394	1.002
12	47207	13.091827398394	1.002
12	47335	13.111827398394	1.002
12	47345	13.131827398394	1.002
12	47361	13.151827398394	1.002
12	47937	13.171827398394	1.002
12	48132	13.191827398394	1.002
12	48260	13.211827398394	1.002
12	48270	13.231827398394	1.002
12	48286	13.251827398394	1.002
12	48895	13.271827398394	1.002
12	49090	13.291827398394	1.002
12	49218	13.311827398394	1.002
12	49228	13.331827398394	1.002
12	49244	13.351827398394	1.002
12	49809	13.371827398394	1.002
12	50004	13.391827398394	1.002
12	50132	13.411827398394	1.002
12	50142	13.431827398394	1.002
12	50158	13.451827398394	1.002
12	50739	13.471827398394	1.002
12	50934	13.491827398394	1.002
12	51062	13.511827398394	1.002
12	51072	13.531827398394	1.002
12	51088	13.551827398394	1.002
12	51653	13.571827398394	1.002
12	51848	13.591827398394	1.002
12	51976	13.611827398394	1.002
12	51986	13.631827398394	1.002
12	52002	13.651827398394	1.002
12	52583	13.671827398394	1.002
12	52778	13.691827398394	1.002
12	52906	13.711827398394	1.002
12	52916	13.731827398394	1.002
12	52932	13.751827398394	1.002
12	53508	13.771827398394	1.002
12	53703	13.791827398394	1.002
12	53831	13.811827398394	1.002
12	53841	13.831827398394	1.002
12	53857	13.851827398394	1.002
12	54426	13.871827398394	1.002
12	54621	13.891827398394	1.002
12	54749	13.911827398394	1.002
12	54759	13.931827398394	1.002
12	54775	13.951827398394	1.002
12	55350	13.971827398394	1.002
12	55545	13.991827398394	1.002
12	55673	14.011827398394	1.002
12	55683	14.031827398394	1.002
12	55699	14.051827398394	1.002
12	56275	14.071827398394	1.002
12	56470	14.091827398394	1.002
12	56598	14.111827398394	1.002
12	56608	14.131827398394	1.002
12	56624	14.151827398394	1.002
12	57216	14.171827398394	1.002
12	57411	14.191827398394	1.002
12	57539	14.211827398394	1.002
12	57549	14.231827398394	1.002
12	57565	14.251827398394	1.002
12	58130	14.271827398394	1.002
12	58325	14.291827398394	1.002
12	58453	14.311827398394	1.002
12	58463	14.331827398394	1.002
12	58479	14.351827398394	1.002
12	59070	14.371827398394	1.002
12	59265	14.391827398394	1.002
12	59393	14.411827398394	1.002
12	59403	14.431827398394	1.002
12	59419	14.451827398394	1.002
12	59995	14.471827398394	1.002
12	60190	14.491827398394	1.002
12	60318	14.511827398394	1.002
12	60328	14.531827398394	1.002
12	60344	14.551827398394	1.002
12	60929	14.571827398394	1.002
12	61124	14.591827398394	1.002
12	61252	14.611827398394	1.002
12	61262	14.631827398394	1.002
12	61278	14.651827398394	1.002
12	61863	14.671827398394	1.002
12	62058	14.691827398394	1.002
12	62186	14.711827398394	1.002
12	62196	14.731827398394	1.002
12	62212	14.751827398394	1.002
12	62808	14.771827398394	1.002
12	63003	14.791827398394	1.002
12	63131	14.811827398394	1.002
12	63141	14.831827398394	1.002
12	63157	14.851827398394	1.002
12	63726	14.871827398394	1.002
12	63921	14.891827398394	1.002
12	64049	14.911827398394	1.002
12	64059	14.931827398394	1.002
12	64075	14.951827398394	1.002
12	64655	14.971827398394	1.002
12	64850	14.991827398394	1.002
12	64978	15.011827398394	1.002
12	64988	15.031827398394	1.002
12	65004	15.051827398394	1.002
12	65585	15.071827398394	1.002
12	65780	15.091827398394	1.002
12	65908	15.111827398394	1.002
12	65918	15.131827398394	1.002
12	65934	15.151827398394	1.002
12	66514	15.171827398394	1.002
12	66709	15.191827398394	1.002
12	66837	15.211827398394	1.002
12	66847	15.231827398394	1.002
12	66863	15.251827398394	1.002
12	67459	15.271827398394	1.002
12	67654	15.291827398394	1.002
12	67782	15.311827398394	1.002
12	67792	15.331827398394	1.002
12	67808	15.351827398394	1.002
12	68388	15.371827398394	1.002
12	68583	15.391827398394	1.002
12	68711	15.411827398394	1.002
12	68721	15.431827398394	1.002
12	68737	15.451827398394	1.002
12	69317	15.471827398394	1.002
12	69512	15.491827398394	1.002
12	69640	15.511827398394	1.002
12	69650	15.531827398394	1.002
12	69666	15.551827398394	1.002
12	70251	15.571827398394	1.002
12	70446	15.591827398394	1.002
12	70574	15.611827398394	1.002
12	70584	15.631827398394	1.002
12	70600	15.651827398394	1.002
12	71175	15.671827398394	1.002
12	71370	15.691827398394	1.002
12	71498	15.711827398394	1.002
12	71508	15.731827398394	1.002
12	71524	15.751827398394	1.002
12	72088	15.771827398394	1.002
12	72283	15.791827398394	1.002
12	72411	15.811827398394	1.002
12	72421	15.831827398394	1.002
12	72437	15.851827398394	1.002
12	73022	15.871827398394	1.002
12	73217	15.891827398394	1.002
12	73345	15.911827398394	1.002
12	73355	15.931827398394	1.002
12	73371	15.951827398394	1.002
12	73962	15.971827398394	1.002
12	74157	15.991827398394	1.002
12	74285	16.011827398394	1.002
12	74295	16.031827398394	1.002
12	74311	16.051827398394	1.002
12	74902	16.071827398394	1.002
12	75097	16.091827398394	1.002
12	75225	16.111827398394	1.002
12	75235	16.131827398394	1.002
12	75251	16.151827398394	1.002
12	75842	16.171827398394	1.002
12	76037	16.191827398394	1.002
12	76165	16.211827398394	1.002
12	76175	16.231827398394	1.002
12	76191	16.251827398394	1.002
12	76782	16.271827398394	1.002
12	76977	16.291827398394	1.002
12	77105	16.311827398394	1.002
12	77115	16.331827398394	1.002
12	77131	16.351827398394	1.002
12	77695	16.371827398394	1.002
12	77890	16.391827398394	1.002
12	78018	16.411827398394	1.002
12	78028	16.431827398394	1.002
12	78044	16.451827398394	1.002
12	78640	16.471827398394	1.002
12	78835	16.491827398394	1.002
12	78963	16.511827398394	1.002
12	78973	16.531827398394	1.002
12	78989	16.551827398394	1.002
12	79585	16.571827398394	1.002
12	79780	16.591827398394	1.002
12	79908	16.611827398394	1.002
12	79918	16.631827398394	1.002
12	79934	16.651827398394	1.002
12	80498	16.671827398394	1.002
12	80693	16.691827398394	1.002
12	80821	16.711827398394	1.002
12	80831	16.731827398394	1.002
12	80847	16.751827398394	1.002
12	81406	16.771827398394	1.002
12	81601	16.791827398394	1.002
12	81729	16.811827398394	1.002
12	81739	16.831827398394	1.002
12	81755	16.851827398394	1.002
12	82346	16.871827398394	1.002
12	82541	16.891827398394	1.002
12	82669	16.911827398394	1.002
12	82679	16.931827398394	1.002
12	82695	16.951827398394	1.002
12	83275	16.971827398394	1.002
12	83470	16.991827398394	1.002
12	83598	17.011827398394	1.002
12	83608	17.031827398394	1.002
12	83624	17.051827398394	1.002
12	84231	17.071827398394	1.002
12	84426	17.091827398394	1.002
12	84554	17.111827398394	1.002
12	84564	17.131827398394	1.002
12	84580	17.151827398394	1.002
12	85155	17.171827398394	1.002
12	85350	17.191827398394	1.002
12	85478	17.211827398394	1.002
12	85488	17.231827398394	1.002
12	85504	17.251827398394	1.002
12	86073	17.271827398394	1.002
12	86268	17.291827398394	1.002
12	86396	17.311827398394	1.002
12	86406	17.331827398394	1.002
12	86422	17.351827398394	1.002
12	86986	17.371827398394	1.002
12	87181	17.391827398394	1.002
12	87309	17.411827398394	1.002
12	87319	17.431827398394	1.002
12	87335	17.451827398394	1.002
12	87899	17.471827398394	1.002
12	88094	17.491827398394	1.002
12	88222	17.511827398394	1.002
12	88232	17.531827398394	1.002
12	88248	17.551827398394	1.002
12	88839	17.571827398394	1.002
12	89034	17.591827398394	1.002
12	89162	17.611827398394	1.002
12	89172	17.631827398394	1.002
12	89188	17.651827398394	1.002
12	89768	17.671827398394	1.002
12	89963	17.691827398394	1.002
12	90091	17.711827398394	1.002
12	90101	17.731827398394	1.002
12	90117	17.751827398394	1.002
12	90681	17.771827398394	1.002
12	90876	17.791827398394	1.002
12	91004	17.811827398394	1.002
12	91014	17.831827398394	1.002
12	91030	17.851827398394	1.002
12	91605	17.871827398394	1.002
12	91800	17.891827398394	1.002
12	91928	17.911827398394	1.002
12	91938	17.931827398394	1.002
12	91954	17.951827398394	1.002
12	92534	17.971827398394	1.002
12	92729	17.991827398394	1.002
12	92857	18.011827398394	1.002
12	92867	18.031827398394	1.002
12	92883	18.051827398394	1.002
12	93490	18.071827398394	1.002
12	93685	18.091827398394	1.002
12	93813	18.111827398394	1.002
12	93823	18.131827398394	1.002
12	93839	18.151827398394	1.002
12	94414	18.171827398394	1.002
12	94609	18.191827398394	1.002
12	94737	18.211827398394	1.002
12	94747	18.231827398394	1.002
12	94763	18.251827398394	1.002
12	95348	18.271827398394	1.002
12	95543	18.291827398394	1.002
12	95671	18.311827398394	1.002
12	95681	18.331827398394	1.002
12	95697	18.351827398394	1.002
12	96255	18.371827398394	1.002
12	96450	18.391827398394	1.002
12	96578	18.411827398394	1.002
12	96588	18.431827398394	1.002
12	96604	18.451827398394	1.002
12	97179	18.471827398394	1.002
12	97374	18.491827398394	1.002
12	97502	18.511827398394	1.002
12	97512	18.531827398394	1.002
12	97528	18.551827398394	1.002
12	98135	18.571827398394	1.002
12	98330	18.591827398394	1.002
12	98458	18.611827398394	1.002
12	98468	18.631827398394	1.002
12	98484	18.651827398394	1.002
12	99091	18.671827398394	1.002
12	99286	18.691827398394	1.002
12	99414	18.711827398394	1.002
12	99424	18.731827398394	1.002
12	99440	18.751827398394	1.002
12	100020	18.771827398394	1.002
12	100215	18.791827398394	1.002
12	100343	18.811827398394	1.002
12	100353	18.831827398394	1.002
12	100369	18.851827398394	1.002
12	100960	18.871827398394	1.002
12	101155	18.891827398394	1.002
12	101283	18.911827398394	1.002
12	101293	18.931827398394	1.002
12	101309	18.951827398394	1.002
12	101900	18.971827398394	1.002
12	102095	18.991827398394	1.002
12	102223	19.011827398394	1.002
12	102233	19.031827398394	1.002
12	102249	19.051827398394	1.002
12	102824	19.071827398394	1.002
12	103019	19.091827398394	1.002
12	103147	19.111827398394	1.002
12	103157	19.131827398394	1.002
12	103173	19.151827398394	1.002
12	103758	19.171827398394	1.002
12	103953	19.191827398394	1.002
12	104081	19.211827398394	1.002
12	104091	19.231827398394	1.002
12	104107	19.251827398394	1.002
12	104714	19.271827398394	1.002
12	104909	19.291827398394	1.002
12	105037	19.311827398394	1.002
12	105047	19.331827398394	1.002
12	105063	19.351827398394	1.002
12	105638	19.371827398394	1.002
12	105833	19.391827398394	1.002
12	105961	19.411827398394	1.002
12	105971	19.431827398394	1.002
12	105987	19.451827398394	1.002
12	106567	19.471827398394	1.002
12	106762	19.491827398394	1.002
12	106890	19.511827398394	1.002
12	106900	19.531827398394	1.002
12	106916	19.551827398394	1.002
12	107496	19.571827398394	1.002
12	107691	19.591827398394	1.002
12	107819	19.611827398394	1.002
12	107829	19.631827398394	1.002
12	107845	19.651827398394	1.002
12	108420	19.671827398394	1.002
12	108615	19.691827398394	1.002
12	108743	19.711827398394	1.002
12	108753	19.731827398394	1.002
12	108769	19.751827398394	1.002
12	109333	19.771827398394	1.002
12	109528	19.791827398394	1.002
12	109656	19.811827398394	1.002
12	109666	19.831827398394	1.002
12	109682	19.851827398394	1.002
12	110273	19.871827398394	1.002
12	110468	19.891827398394	1.002
12	110596	19.911827398394	1.002
12	110606	19.931827398394	1.002
12	110622	19.951827398394	1.002
12	111213	19.971827398394	1.002
12	111408	19.991827398394	1.002
12	111536	20.011827398394	1.002
12	111546	20.031827398394	1.002
12	111562	20.051827398394	1.002
12	112126	20.071827398394	1.002
12	112321	20.091827398394	1.002
12	112449	20.111827398394	1.002
12	112459	20.131827398394	1.002
12	112475	20.151827398394	1.002
12	113066	20.171827398394	1.002
12	113261	20.191827398394	1.002
12	113389	20.211827398394	1.002
12	113399	20.231827398394	1.002
12	113415	20.251827398394	1.002
12	114022	20.271827398394	1.002
12	114217	20.291827398394	1.002
12	114345	20.311827398394	1.002
12	114355	20.331827398394	1.002
12	114371	20.351827398394	1.002
12	114930	20.371827398394	1.002
12	115125	20.391827398394	1.002
12	115253	20.411827398394	1.002
12	115263	20.431827398394	1.002
12	115279	20.451827398394	1.002
12	115838	20.471827398394	1.002
12	116033	20.491827398394	1.002
12	116161	20.511827398394	1.002
12	116171	20.531827398394	1.002
12	116187	20.551827398394	1.002
12	116751	20.571827398394	1.002
12	116946	20.591827398394	1.002
12	117074	20.611827398394	1.002
12	117084	20.631827398394	1.002
12	117100	20.651827398394	1.002
12	117669	20.671827398394	1.002
12	117864	20.691827398394	1.002
12	117992	20.711827398394	1.002
12	118002	20.731827398394	1.002
12	118018	20.751827398394	1.002
12	118587	20.771827398394	1.002
12	118782	20.791827398394	1.002
12	118910	20.811827398394	1.002
12	118920	20.831827398394	1.002
12	118936	20.851827398394	1.002
12	119500	20.871827398394	1.002
12	119695	20.891827398394	1.002
12	119823	20.911827398394	1.002
12	119833	20.931827398394	1.002
12	119849	20.951827398394	1.002
12	120429	20.971827398394	1.002
12	120624	20.991827398394	1.002
12	120752	21.011827398394	1.002
12	120762	21.031827398394	1.002
12	120778	21.051827398394	1.002
12	121358	21.071827398394	1.002
12	121553	21.091827398394	1.002
12	121681	21.111827398394	1.002
12	121691	21.131827398394	1.002
12	121707	21.151827398394	1.002
12	122270	21.171827398394	1.002
12	122465	21.191827398394	1.002
12	122593	21.211827398394	1.002
12	122603	21.231827398394	1.002
12	122619	21.251827398394	1.002
12	123194	21.271827398394	1.002
12	123389	21.291827398394	1.002
12	123517	21.311827398394	1.002
12	123527	21.331827398394	1.002
12	123543	21.351827398394	1.002
12	124107	21.371827398394	1.002
12	124302	21.391827398394	1.002
12	124430	21.411827398394	1.002
12	124440	21.431827398394	1.002
12	124456	21.451827398394	1.002
12	125020	21.471827398394	1.002
12	125215	21.491827398394	1.002
12	125343	21.511827398394	1.002
12	125353	21.531827398394	1.002
12	125369	21.551827398394	1.002
12	125944	21.571827398394	1.002
12	126139	21.591827398394	1.002
12	126267	21.611827398394	1.002
12	126277	21.631827398394	1.002
12	126293	21.651827398394	1.002
12	126868	21.671827398394	1.002
12	127063	21.691827398394	1.002
12	127191	21.711827398394	1.002
12	127201	21.731827398394	1.002
12	127217	21.751827398394	1.002
12	127808	21.771827398394	1.002
12	128003	21.791827398394	1.002
12	128131	21.811827398394	1.002
12	128141	21.831827398394	1.002
12	128157	21.851827398394	1.002
12	128737	21.871827398394	1.002
12	128932	21.891827398394	1.002
12	129060	21.911827398394	1.002
12	129070	21.931827398394	1.002
12	129086	21.951827398394	1.002
12	129650	21.971827398394	1.002
12	129845	21.991827398394	1.002
12	129973	22.011827398394	1.002
12	129983	22.031827398394	1.002
12	129999	22.051827398394	1.002
12	130579	22.071827398394	1.002
12	130774	22.091827398394	1.002
12	130902	22.111827398394	1.002
12	130912	22.131827398394	1.002
12	130928	22.151827398394	1.002
12	131508	22.171827398394	1.002
12	131703	22.191827398394	1.002
12	131831	22.211827398394	1.002
12	131841	22.231827398394	1.002
12	131857	22.251827398394	1.002
12	132437	22.271827398394	1.002
12	132632	22.291827398394	1.002
12	132760	22.311827398394	1.002
12	132770	22.331827398394	1.002
12	132786	22.351827398394	1.002
12	133366	22.371827398394	1.002
12	133561	22.391827398394	1.002
12	133689	22.411827398394	1.002
12	133699	22.431827398394	1.002
12	133715	22.451827398394	1.002
12	134295	22.471827398394	1.002
12	134490	22.491827398394	1.002
12	134618	22.511827398394	1.002
12	134628	22.531827398394	1.002
12	134644	22.551827398394	1.002
12	135208	22.571827398394	1.002
12	135403	22.591827398394	1.002
12	135531	22.611827398394	1.002
12	135541	22.631827398394	1.002
12	135557	22.651827398394	1.002
12	136126	22.671827398394	1.002
12	136321	22.691827398394	1.002
12	136449	22.711827398394	1.002
12	136459	22.731827398394	1.002
12	136475	22.751827398394	1.002
12	137055	22.771827398394	1.002
12	137250	22.791827398394	1.002
12	137378	22.811827398394	1.002
12	137388	22.831827398394	1.002
12	137404	22.851827398394	1.002
12	138005	22.871827398394	1.002
12	138200	22.891827398394	1.002
12	138328	22.911827398394	1.002
12	138338	22.931827398394	1.002
12	138354	22.951827398394	1.002
12	138918	22.971827398394	1.002
12	139113	22.991827398394	1.002
12	139241	23.011827398394	1.002
12	139251	23.031827398394	1.002
12	139267	23.051827398394	1.002
12	139858	23.071827398394	1.002
12	140053	23.091827398394	1.002
12	140181	23.111827398394	1.002
12	140191	23.131827398394	1.002
12	140207	23.151827398394	1.002
12	140787	23.171827398394	1.002
12	140982	23.191827398394	1.002
12	141110	23.211827398394	1.002
12	141120	23.231827398394	1.002
12	141136	23.251827398394	1.002
12	141711	23.271827398394	1.002
12	141906	23.291827398394	1.002
12	142034	23.311827398394	1.002
12	142044	23.331827398394	1.002
12	142060	23.351827398394	1.002
12	142634	23.371827398394	1.002
12	142829	23.391827398394	1.002
12	142957	23.411827398394	1.002
12	142967	23.431827398394	1.002
12	142983	23.451827398394	1.002
12	143563	23.471827398394	1.002
12	143758	23.491827398394	1.002
12	143886	23.511827398394	1.002
12	143896	23.531827398394	1.002
12	143912	23.551827398394	1.002
12	144503	23.571827398394	1.002
12	144698	23.591827398394	1.002
12	144826	23.611827398394	1.002
12	144836	23.631827398394	1.002
12	144852	23.651827398394	1.002
12	145411	23.671827398394	1.002
12	145606	23.691827398394	1.002
12	145734	23.711827398394	1.002
12	145744	23.731827398394	1.002
12	145760	23.751827398394	1.002
12	146340	23.771827398394	1.002
12	146535	23.791827398394	1.002
12	146663	23.811827398394	1.002
12	146673	23.831827398394	1.002
12	146689	23.851827398394	1.002
12	147269	23.871827398394	1.002
12	147464	23.891827398394	1.002
12	147592	23.911827398394	1.002
12	147602	23.931827398394	1.002
12	147618	23.951827398394	1.002
12	148193	23.971827398394	1.002
12	148388	23.991827398394	1.002
12	148516	24.011827398394	1.002
12	148526	24.031827398394	1.002
12	148542	24.051827398394	1.002
12	149100	24.071827398394	1.002
12	149295	24.091827398394	1.002
12	149423	24.111827398394	1.002
12	149433	24.131827398394	1.002
12	149449	24.151827398394	1.002
12	150040	24.171827398394	1.002
12	150235	24.191827398394	1.002
12	150363	24.211827398394	1.002
12	150373	24.231827398394	1.002
12	150389	24.251827398394	1.002
12	150969	24.271827398394	1.002
12	151164	24.291827398394	1.002
12	151292	24.311827398394	1.002
12	151302	24.331827398394	1.002
12	151318	24.351827398394	1.002
12	151898	24.371827398394	1.002
12	152093	24.391827398394	1.002
12	152221	24.411827398394	1.002
12	152231	24.431827398394	1.002
12	152247	24.451827398394	1.002
12	152854	24.471827398394	1.002
12	153049	24.491827398394	1.002
12	153177	24.511827398394	1.002
12	153187	24.531827398394	1.002
12	153203	24.551827398394	1.002
12	153783	24.571827398394	1.002
12	153978	24.591827398394	1.002
12	154106	24.611827398394	1.002
12	154116	24.631827398394	1.002
12	154132	24.651827398394	1.002
12	154728	24.671827398394	1.002
12	154923	24.691827398394	1.002
12	155051	24.711827398394	1.002
12	155061	24.731827398394	1.002
12	155077	24.751827398394	1.002
12	155657	24.771827398394	1.002
12	155852	24.791827398394	1.002
12	155980	24.811827398394	1.002
12	155990	24.831827398394	1.002
12	156006	24.851827398394	1.002
12	156570	24.871827398394	1.002
12	156765	24.891827398394	1.002
12	156893	24.911827398394	1.002
12	156903	24.931827398394	1.002
12	156919	24.951827398394	1.002
12	157494	24.971827398394	1.002
12	157689	24.991827398394	1.002
12	157817	25.011827398394	1.002
12	157827	25.031827398394	1.002
12	157843	25.051827398394	1.002
12	158402	25.071827398394	1.002
12	158597	25.091827398394	1.002
12	158725	25.111827398394	1.002
12	158735	25.131827398394	1.002
12	158751	25.151827398394	1.002
12	159331	25.171827398394	1.002
12	159526	25.191827398394	1.002
12	159654	25.211827398394	1.002
12	159664	25.231827398394	1.002
12	159680	25.251827398394	1.002
12	160255	25.271827398394	1.002
12	160450	25.291827398394	1.002
12	160578	25.311827398394	1.002
12	160588	25.331827398394	1.002
12	160604	25.351827398394	1.002
12	161184	25.371827398394	1.002
12	161379	25.391827398394	1.002
12	161507	25.411827398394	1.002
12	161517	25.431827398394	1.002
12	161533	25.451827398394	1.002
12	162108	25.471827398394	1.002
12	162303	25.491827398394	1.002
12	162431	25.511827398394	1.002
12	162441	25.531827398394	1.002
12	162457	25.551827398394	1.002
12	163026	25.571827398394	1.002
12	163221	25.591827398394	1.002
12	163349	25.611827398394	1.002
12	163359	25.631827398394	1.002
12	163375	25.651827398394	1.002
12	163950	25.671827398394	1.002
12	164145	25.691827398394	1.002
12	164273	25.711827398394	1.002
12	164283	25.731827398394	1.002
12	164299	25.751827398394	1.002
12	164868	25.771827398394	1.002
12	165063	25.791827398394	1.002
12	165191	25.811827398394	1.002
12	165201	25.831827398394	1.002
12	165217	25.851827398394	1.002
12	165781	25.871827398394	1.002
12	165976	25.891827398394	1.002
12	166104	25.911827398394	1.002
12	166114	25.931827398394	1.002
12	166130	25.951827398394	1.002
12	166721	25.971827398394	1.002
12	166916	25.991827398394	1.002
12	167044	26.011827398394	1.002
12	167054	26.031827398394	1.002
12	167070	26.051827398394	1.002
12	167634	26.071827398394	1.002
12	167829	26.091827398394	1.002
12	167957	26.111827398394	1.002
12	167967	26.131827398394	1.002
12	167983	26.151827398394	1.002
12	168574	26.171827398394	1.002
12	168769	26.191827398394	1.002
12	168897	26.211827398394	1.002
12	168907	26.231827398394	1.002
12	168923	26.251827398394	1.002
12	169514	26.271827398394	1.002
12	169709	26.291827398394	1.002
12	169837	26.311827398394	1.002
12	169847	26.331827398394	1.002
12	169863	26.351827398394	1.002
12	170438	26.371827398394	1.002
12	170633	26.391827398394	1.002
12	170761	26.411827398394	1.002
12	170771	26.431827398394	1.002
12	170787	26.451827398394	1.002
12	171340	26.471827398394	1.002
12	171535	26.491827398394	1.002
12	171663	26.511827398394	1.002
12	171673	26.531827398394	1.002
12	171689	26.551827398394	1.002
12	172253	26.571827398394	1.002
12	172448	26.591827398394	1.002
12	172576	26.611827398394	1.002
12	172586	26.631827398394	1.002
12	172602	26.651827398394	1.002
12	173182	26.671827398394	1.002
12	173377	26.691827398394	1.002
12	173505	26.711827398394	1.002
12	173515	26.731827398394	1.002
12	173531	26.751827398394	1.002
12	174111	26.771827398394	1.002
12	174306	26.791827398394	1.002
12	174434	26.811827398394	1.002
12	174444	26.831827398394	1.002
12	174460	26.851827398394	1.002
12	175040	26.871827398394	1.002
12	175235	26.891827398394	1.002
12	175363	26.911827398394	1.002
12	175373	26.931827398394	1.002
12	175389	26.951827398394	1.002
12	175969	26.971827398394	1.002
12	176164	26.991827398394	1.002
12	176292	27.011827398394	1.002
12	176302	27.031827398394	1.002
12	176318	27.051827398394	1.002
12	176909	27.071827398394	1.002
12	177104	27.091827398394	1.002
12	177232	27.111827398394	1.002
12	177242	27.131827398394	1.002
12	177258	27.151827398394	1.002
12	177849	27.171827398394	1.002
12	178044	27.191827398394	1.002
12	178172	27.211827398394	1.002
12	178182	27.231827398394	1.002
12	178198	27.251827398394	1.002
12	178773	27.271827398394	1.002
12	178968	27.291827398394	1.002
12	179096	27.311827398394	1.002
12	179106	27.331827398394	1.002
12	179122	27.351827398394	1.002
12	179697	27.371827398394	1.002
12	179892	27.391827398394	1.002
12	180020	27.411827398394	1.002
12	180030	27.431827398394	1.002
12	180046	27.451827398394	1.002
12	180653	27.471827398394	1.002
12	180848	27.491827398394	1.002
12	180976	27.511827398394	1.002
12	180986	27.531827398394	1.002
12	181002	27.551827398394	1.002
12	181582	27.571827398394	1.002
12	181777	27.591827398394	1.002
12	181905	27.611827398394	1.002
12	181915	27.631827398394	1.002
12	181931	27.651827398394	1.002
12	182495	27.671827398394	1.002
12	182690	27.691827398394	1.002
12	182818	27.711827398394	1.002
12	182828	27.731827398394	1.002
12	182844	27.751827398394	1.002
12	183435	27.771827398394	1.002
12	183630	27.791827398394	1.002
12	183758	27.811827398394	1.002
12	183768	27.831827398394	1.002
12	183784	27.851827398394	1.002
12	184359	27.871827398394	1.002
12	184554	27.891827398394	1.002
12	184682	27.911827398394	1.002
12	184692	27.931827398394	1.002
12	184708	27.951827398394	1.002
12	185299	27.971827398394	1.002
12	185494	27.991827398394	1.002
12	185622	28.011827398394	1.002
12	185632	28.031827398394	1.002
12	185648	28.051827398394	1.002
12	186244	28.071827398394	1.002
12	186439	28.091827398394	1.002
12	186567	28.111827398394	1.002
12	186577	28.131827398394	1.002
12	186593	28.151827398394	1.002
12	187173	28.171827398394	1.002
12	187368	28.191827398394	1.002
12	187496	28.211827398394	1.002
12	187506	28.231827398394	1.002
12	187522	28.251827398394	1.002
12	188102	28.271827398394	1.002
12	188297	28.291827398394	1.002
12	188425	28.311827398394	1.002
12	188435	28.331827398394	1.002
12	188451	28.351827398394	1.002
12	189015	28.371827398394	1.002
12	189210	28.391827398394	1.002
12	189338	28.411827398394	1.002
12	189348	28.431827398394	1.002
12	189364	28.451827398394	1.002
12	189944	28.471827398394	1.002
12	190139	28.491827398394	1.002
12	190267	28.511827398394	1.002
12	190277	28.531827398394	1.002
12	190293	28.551827398394	1.002
12	190873	28.571827398394	1.002
12	191068	28.591827398394	1.002
12	191196	28.611827398394	1.002
12	191206	28.631827398394	1.002
12	191222	28.651827398394	1.002
12	191797	28.671827398394	1.002
12	191992	28.691827398394	1.002
12	192120	28.711827398394	1.002
12	192130	28.731827398394	1.002
12	192146	28.751827398394	1.002
12	192710	28.771827398394	1.002
12	192905	28.791827398394	1.002
12	193033	28.811827398394	1.002
12	193043	28.831827398394	1.002
12	193059	28.851827398394	1.002
12	193639	28.871827398394	1.002
12	193834	28.891827398394	1.002
12	193962	28.911827398394	1.002
12	193972	28.931827398394	1.002
12	193988	28.951827398394	1.002
12	194552	28.971827398394	1.002
12	194747	28.991827398394	1.002
12	194875	29.011827398394	1.002
12	194885	29.031827398394	1.002
12	194901	29.051827398394	1.002
12	195492	29.071827398394	1.002
12	195687	29.091827398394	1.002
12	195815	29.111827398394	1.002
12	195825	29.131827398394	1.002
12	195841	29.151827398394	1.002
12	196426	29.171827398394	1.002
12	196621	29.191827398394	1.002
12	196749	29.211827398394	1.002
12	196759	29.231827398394	1.002
12	196775	29.251827398394	1.002
12	197350	29.271827398394	1.002
12	197545	29.291827398394	1.002
12	197673	29.311827398394	1.002
12	197683	29.331827398394	1.002
12	197699	29.351827398394	1.002
12	198295	29.371827398394	1.002
12	198490	29.391827398394	1.002
12	198618	29.411827398394	1.002
12	198628	29.431827398394	1.002
12	198644	29.451827398394	1.002
12	199219	29.471827398394	1.002
12	199414	29.491827398394	1.002
12	199542	29.511827398394	1.002
12	199552	29.531827398394	1.002
12	199568	29.551827398394	1.002
12	200159	29.571827398394	1.002
12	200354	29.591827398394	1.002
12	200482	29.611827398394	1.002
12	200492	29.631827398394	1.002
12	200508	29.651827398394	1.002
12	201083	29.671827398394	1.002
12	201278	29.691827398394	1.002
12	201406	29.711827398394	1.002
12	201416	29.731827398394	1.002
12	201432	29.751827398394	1.002
12	202007	29.771827398394	1.002
12	202202	29.791827398394	1.002
12	202330	29.811827398394	1.002
12	202340	29.831827398394	1.002
12	202356	29.851827398394	1.002
12	202936	29.871827398394	1.002
12	203131	29.891827398394	1.002
12	203259	29.911827398394	1.002
12	203269	29.931827398394	1.002
12	203285	29.951827398394	1.002
12	203865	29.971827398394	1.002
12	204060	29.991827398394	1.002
12	204188	30.011827398394	1.002
12	204198	30.031827398394	1.002
12	204214	30.051827398394	1.002
12	204794	30.071827398394	1.002
12	204989	30.091827398394	1.002
12	205117	30.111827398394	1.002
12	205127	30.131827398394	1.002
12	205143	30.151827398394	1.002
12	205712	30.171827398394	1.002
12	205907	30.191827398394	1.002
12	206035	30.211827398394	1.002
12	206045	30.231827398394	1.002
12	206061	30.251827398394	1.002
12	206625	30.271827398394	1.002
12	206820	30.291827398394	1.002
12	206948	30.311827398394	1.002
12	206958	30.331827398394	1.002
12	206974	30.351827398394	1.002
12	207538	30.371827398394	1.002
12	207733	30.391827398394	1.002
12	207861	30.411827398394	1.002
12	207871	30.431827398394	1.002
12	207887	30.451827398394	1.002
12	208451	30.471827398394	1.002
12	208646	30.491827398394	1.002
12	208774	30.511827398394	1.002
12	208784	30.531827398394	1.002
12	208800	30.551827398394	1.002
12	209380	30.571827398394	1.002
12	209575	30.591827398394	1.002
12	209703	30.611827398394	1.002
12	209713	30.631827398394	1.002
12	209729	30.651827398394	1.002
12	210309	30.671827398394	1.002
12	210504	30.691827398394	1.002
12	210632	30.711827398394	1.002
12	210642	30.731827398394	1.002
12	210658	30.751827398394	1.002
12	211249	30.771827398394	1.002
12	211444	30.791827398394	1.002
12	211572	30.811827398394	1.002
12	211582	30.831827398394	1.002
12	211598	30.851827398394	1.002
12	212162	30.871827398394	1.002
12	212357	30.891827398394	1.002
12	212485	30.911827398394	1.002
12	212495	30.931827398394	1.002
12	212511	30.951827398394	1.002
12	213086	30.971827398394	1.002
12	213281	30.991827398394	1.002
12	213409	31.011827398394	1.002
12	213419	31.031827398394	1.002
12	213435	31.051827398394	1.002
12	213999	31.071827398394	1.002
12	214194	31.091827398394	1.002
12	214322	31.111827398394	1.002
12	214332	31.131827398394	1.002
12	214348	31.151827398394	1.002
12	214944	31.171827398394	1.002
12	215139	31.191827398394	1.002
12	215267	31.211827398394	1.002
12	215277	31.231827398394	1.002
12	215293	31.251827398394	1.002
12	215868	31.271827398394	1.002
12	216063	31.291827398394	1.002
12	216191	31.311827398394	1.002
12	216201	31.331827398394	1.002
12	216217	31.351827398394	1.002
12	216781	31.371827398394	1.002
12	216976	31.391827398394	1.002
12	217104	31.411827398394	1.002
12	217114	31.431827398394	1.002
12	217130	31.451827398394	1.002
12	217694	31.471827398394	1.002
12	217889	31.491827398394	1.002
12	218017	31.511827398394	1.002
12	218027	31.531827398394	1.002
12	218043	31.551827398394	1.002
12	218623	31.571827398394	1.002
12	218818	31.591827398394	1.002
12	218946	31.611827398394	1.002
12	218956	31.631827398394	1.002
12	218972	31.651827398394	1.002
12	219563	31.671827398394	1.002
12	219758	31.691827398394	1.002
12	219886	31.711827398394	1.002
12	219896	31.731827398394	1.002
12	219912	31.751827398394	1.002
12	220487	31.771827398394	1.002
12	220682	31.791827398394	1.002
12	220810	31.811827398394	1.002
12	220820	31.831827398394	1.002
12	220836	31.851827398394	1.002
12	221421	31.871827398394	1.002
12	221616	31.891827398394	1.002
12	221744	31.911827398394	1.002
12	221754	31.931827398394	1.002
12	221770	31.951827398394	1.002
12	222339	31.971827398394	1.002
12	222534	31.991827398394	1.002
12	222662	32.011827398394	1.002
12	222672	32.031827398394	1.002
12	222688	32.051827398394	1.002
12	223268	32.071827398394	1.002
12	223463	32.091827398394	1.002
12	223591	32.111827398394	1.002
12	223601	32.131827398394	1.002
12	223617	32.151827398394	1.002
12	224186	32.171827398394	1.002
12	224381	32.191827398394	1.002
12	224509	32.211827398394	1.002
12	224519	32.231827398394	1.002
12	224535	32.251827398394	1.002
12	225115	32.271827398394	1.002
12	225310	32.291827398394	1.002
12	225438	32.311827398394	1.002
12	225448	32.331827398394	1.002
12	225464	32.351827398394	1.002
12	226039	32.371827398394	1.002
12	226234	32.391827398394	1.002
12	226362	32.411827398394	1.002
12	226372	32.431827398394	1.002
12	226388	32.451827398394	1.002
12	226978	32.471827398394	1.002
12	227173	32.491827398394	1.002
12	227301	32.511827398394	1.002
12	227311	32.531827398394	1.002
12	227327	32.551827398394	1.002
12	227907	32.571827398394	1.002
12	228102	32.591827398394	1.002
12	228230	32.611827398394	1.002
12	228240	32.631827398394	1.002
12	228256	32.651827398394	1.002
12	228815	32.671827398394	1.002
12	229010	32.691827398394	1.002
12	229138	32.711827398394	1.002
12	229148	32.731827398394	1.002
12	229164	32.751827398394	1.002
12	229744	32.771827398394	1.002
12	229939	32.791827398394	1.002
12	230067	32.811827398394	1.002
12	230077	32.831827398394	1.002
12	230093	32.851827398394	1.002
12	230673	32.871827398394	1.002
12	230868	32.891827398394	1.002
12	230996	32.911827398394	1.002
12	231006	32.931827398394	1.002
12	231022	32.951827398394	1.002
12	231581	32.971827398394	1.002
12	231776	32.991827398394	1.002
12	231904	33.011827398394	1.002
12	231914	33.031827398394	1.002
12	231930	33.051827398394	1.002
12	232505	33.071827398394	1.002
12	232700	33.091827398394	1.002
12	232828	33.111827398394	1.002
12	232838	33.131827398394	1.002
12	232854	33.151827398394	1.002
12	233423	33.171827398394	1.002
12	233618	33.191827398394	1.002
12	233746	33.211827398394	1.002
12	233756	33.231827398394	1.002
12	233772	33.251827398394	1.002
12	234341	33.271827398394	1.002
12	234536	33.291827398394	1.002
12	234664	33.311827398394	1.002
12	234674	33.331827398394	1.002
12	234690	33.351827398394	1.002
12	235259	33.371827398394	1.002
12	235454	33.391827398394	1.002
12	235582	33.411827398394	1.002
12	235592	33.431827398394	1.002
12	235608	33.451827398394	1.002
12	236199	33.471827398394	1.002
12	236394	33.491827398394	1.002
12	236522	33.511827398394	1.002
12	236532	33.531827398394	1.002
12	236548	33.551827398394	1.002
12	237144	33.571827398394	1.002
12	237339	33.591827398394	1.002
12	237467	33.611827398394	1.002
12	237477	33.631827398394	1.002
12	237493	33.651827398394	1.002
12	238078	33.671827398394	1.002
12	238273	33.691827398394	1.002
12	238401	33.711827398394	1.002
12	238411	33.731827398394	1.002
12	238427	33.751827398394	1.002
12	238991	33.771827398394	1.002
12	239186	33.791827398394	1.002
12	239314	33.811827398394	1.002
12	239324	33.831827398394	1.002
12	239340	33.851827398394	1.002
12	239904	33.871827398394	1.002
12	240099	33.891827398394	1.002
12	240227	33.911827398394	1.002
12	240237	33.931827398394	1.002
12	240253	33.951827398394	1.002
12	240806	33.971827398394	1.002
12	241001	33.991827398394	1.002
12	241129	34.011827398394	1.002
12	241139	34.031827398394	1.002
12	241155	34.051827398394	1.002
12	241735	34.071827398394	1.002
12	241930	34.091827398394	1.002
12	242058	34.111827398394	1.002
12	242068	34.131827398394	1.002
12	242084	34.151827398394	1.002
12	242680	34.171827398394	1.002
12	242875	34.191827398394	1.002
12	243003	34.211827398394	1.002
12	243013	34.231827398394	1.002
12	243029	34.251827398394	1.002
12	243593	34.271827398394	1.002
12	243788	34.291827398394	1.002
12	243916	34.311827398394	1.002
12	243926	34.331827398394	1.002
12	243942	34.351827398394	1.002
12	244533	34.371827398394	1.002
12	244728	34.391827398394	1.002
12	244856	34.411827398394	1.002
12	244866	34.431827398394	1.002
12	244882	34.451827398394	1.002
12	245451	34.471827398394	1.002
12	245646	34.491827398394	1.002
12	245774	34.511827398394	1.002
12	245784	34.531827398394	1.002
12	245800	34.551827398394	1.002
12	246391	34.571827398394	1.002
12	246586	34.591827398394	1.002
12	246714	34.611827398394	1.002
12	246724	34.631827398394	1.002
12	246740	34.651827398394	1.002
12	247315	34.671827398394	1.002
12	247510	34.691827398394	1.002
12	247638	34.711827398394	1.002
12	247648	34.731827398394	1.002
12	247664	34.751827398394	1.002
12	248271	34.771827398394	1.002
12	248466	34.791827398394	1.002
12	248594	34.811827398394	1.002
12	248604	34.831827398394	1.002
12	248620	34.851827398394	1.002
12	249205	34.871827398394	1.002
12	249400	34.891827398394	1.002
12	249528	34.911827398394	1.002
12	249538	34.931827398394	1.002
12	249554	34.951827398394	1.002
12	250150	34.971827398394	1.002
12	250345	34.991827398394	1.002
12	250473	35.011827398394	1.002
12	250483	35.031827398394	1.002
12	250499	35.051827398394	1.002
12	251058	35.071827398394	1.002
12	251253	35.091827398394	1.002
12	251381	35.111827398394	1.002
12	251391	35.131827398394	1.002
12	251407	35.151827398394	1.002
12	251998	35.171827398394	1.002
12	252193	35.191827398394	1.002
12	252321	35.211827398394	1.002
12	252331	35.231827398394	1.002
12	252347	35.251827398394	1.002
12	252911	35.271827398394	1.002
12	253106	35.291827398394	1.002
12	253234	35.311827398394	1.002
12	253244	35.331827398394	1.002
12	253260	35.351827398394	1.002
12	253856	35.371827398394	1.002
12	254051	35.391827398394	1.002
12	254179	35.411827398394	1.002
12	254189	35.431827398394	1.002
12	254205	35.451827398394	1.002
12	254785	35.471827398394	1.002
12	254980	35.491827398394	1.002
12	255108	35.511827398394	1.002
12	255118	35.531827398394	1.002
12	255134	35.551827398394	1.002
12	255725	35.571827398394	1.002
12	255920	35.591827398394	1.002
12	256048	35.611827398394	1.002
12	256058	35.631827398394	1.002
12	256074	35.651827398394	1.002
12	256665	35.671827398394	1.002
12	256860	35.691827398394	1.002
12	256988	35.711827398394	1.002
12	256998	35.731827398394	1.002
12	257014	35.751827398394	1.002
12	257578	35.771827398394	1.002
12	257773	35.791827398394	1.002
12	257901	35.811827398394	1.002
12	257911	35.831827398394	1.002
12	257927	35.851827398394	1.002
12	258534	35.871827398394	1.002
12	258729	35.891827398394	1.002
12	258857	35.911827398394	1.002
12	258867	35.931827398394	1.002
12	258883	35.951827398394	1.002
12	259474	35.971827398394	1.002
12	259669	35.991827398394	1.002
12	259797	36.011827398394	1.002
12	259807	36.031827398394	1.002
12	259823	36.051827398394	1.002
12	260398	36.071827398394	1.002
12	260593	36.091827398394	1.002
12	260721	36.111827398394	1.002
12	260731	36.131827398394	1.002
12	260747	36.151827398394	1.002
12	261338	36.171827398394	1.002
12	261533	36.191827398394	1.002
12	261661	36.211827398394	1.002
12	261671	36.231827398394	1.002
12	261687	36.251827398394	1.002
12	262272	36.271827398394	1.002
12	262467	36.291827398394	1.002
12	262595	36.311827398394	1.002
12	262605	36.331827398394	1.002
12	262621	36.351827398394	1.002
12	263196	36.371827398394	1.002
12	263391	36.391827398394	1.002
12	263519	36.411827398394	1.002
12	263529	36.431827398394	1.002
12	263545	36.451827398394	1.002
12	264130	36.471827398394	1.002
12	264325	36.491827398394	1.002
12	264453	36.511827398394	1.002
12	264463	36.531827398394	1.002
12	264479	36.551827398394	1.002
12	265075	36.571827398394	1.002
12	265270	36.591827398394	1.002
12	265398	36.611827398394	1.002
12	265408	36.631827398394	1.002
12	265424	36.651827398394	1.002
12	265988	36.671827398394	1.002
12	266183	36.691827398394	1.002
12	266311	36.711827398394	1.002
12	266321	36.731827398394	1.002
12	266337	36.751827398394	1.002
12	266933	36.771827398394	1.002
12	267128	36.791827398394	1.002
12	267256	36.811827398394	1.002
12	267266	36.831827398394	1.002
12	267282	36.851827398394	1.002
12	267841	36.871827398394	1.002
12	268036	36.891827398394	1.002
12	268164	36.911827398394	1.002
12	268174	36.931827398394	1.002
12	268190	36.951827398394	1.002
12	268781	36.971827398394	1.002
12	268976	36.991827398394	1.002
12	269104	37.011827398394	1.002
12	269114	37.031827398394	1.002
12	269130	37.051827398394	1.002
12	269689	37.071827398394	1.002
12	269884	37.091827398394	1.002
12	270012	37.111827398394	1.002
12	270022	37.131827398394	1.002
12	270038	37.151827398394	1.002
12	270618	37.171827398394	1.002
12	270813	37.191827398394	1.002
12	270941	37.211827398394	1.002
12	270951	37.231827398394	1.002
12	270967	37.251827398394	1.002
12	271536	37.271827398394	1.002
12	271731	37.291827398394	1.002
12	271859	37.311827398394	1.002
12	271869	37.331827398394	1.002
12	271885	37.351827398394	1.002
12	272481	37.371827398394	1.002
12	272676	37.391827398394	1.002
12	272804	37.411827398394	1.002
12	272814	37.431827398394	1.002
12	272830	37.451827398394	1.002
12	273399	37.471827398394	1.002
12	273594	37.491827398394	1.002
12	273722	37.511827398394	1.002
12	273732	37.531827398394	1.002
12	273748	37.551827398394	1.002
12	274312	37.571827398394	1.002
12	274507	37.591827398394	1.002
12	274635	37.611827398394	1.002
12	274645	37.631827398394	1.002
12	274661	37.651827398394	1.002
12	275252	37.671827398394	1.002
12	275447	37.691827398394	1.002
12	275575	37.711827398394	1.002
12	275585	37.731827398394	1.002
12	275601	37.751827398394	1.002
12	276181	37.771827398394	1.002
12	276376	37.791827398394	1.002
12	276504	37.811827398394	1.002
12	276514	37.831827398394	1.002
12	276530	37.851827398394	1.002
12	277126	37.871827398394	1.002
12	277321	37.891827398394	1.002
12	277449	37.911827398394	1.002
12	277459	37.931827398394	1.002
12	277475	37.951827398394	1.002
12	278055	37.971827398394	1.002
12	278250	37.991827398394	1.002
12	278378	38.011827398394	1.002
12	278388	38.031827398394	1.002
12	278404	38.051827398394	1.002
12	279000	38.071827398394	1.002
12	279195	38.091827398394	1.002
12	279323	38.111827398394	1.002
12	279333	38.131827398394	1.002
12	279349	38.151827398394	1.002
12	279924	38.171827398394	1.002
12	280119	38.191827398394	1.002
12	280247	38.211827398394	1.002
12	280257	38.231827398394	1.002
12	280273	38.251827398394	1.002
12	280853	38.271827398394	1.002
12	281048	38.291827398394	1.002
12	281176	38.311827398394	1.002
12	281186	38.331827398394	1.002
12	281202	38.351827398394	1.002
12	281777	38.371827398394	1.002
12	281972	38.391827398394	1.002
12	282100	38.411827398394	1.002
12	282110	38.431827398394	1.002
12	282126	38.451827398394	1.002
12	282722	38.471827398394	1.002
12	282917	38.491827398394	1.002
12	283045	38.511827398394	1.002
12	283055	38.531827398394	1.002
12	283071	38.551827398394	1.002
12	283662	38.571827398394	1.002
12	283857	38.591827398394	1.002
12	283985	38.611827398394	1.002
12	283995	38.631827398394	1.002
12	284011	38.651827398394	1.002
12	284591	38.671827398394	1.002
12	284786	38.691827398394	1.002
12	284914	38.711827398394	1.002
12	284924	38.731827398394	1.002
12	284940	38.751827398394	1.002
12	285515	38.771827398394	1.002
12	285710	38.791827398394	1.002
12	285838	38.811827398394	1.002
12	285848	38.831827398394	1.002
12	285864	38.851827398394	1.002
12	286444	38.871827398394	1.002
12	286639	38.891827398394	1.002
12	286767	38.911827398394	1.002
12	286777	38.931827398394	1.002
12	286793	38.951827398394	1.002
12	287373	38.971827398394	1.002
12	287568	38.991827398394	1.002
12	287696	39.011827398394	1.002
12	287706	39.031827398394	1.002
12	287722	39.051827398394	1.002
12	288329	39.071827398394	1.002
12	288524	39.091827398394	1.002
12	288652	39.111827398394	1.002
12	288662	39.131827398394	1.002
12	288678	39.151827398394	1.002
12	289258	39.171827398394	1.002
12	289453	39.191827398394	1.002
12	289581	39.211827398394	1.002
12	289591	39.231827398394	1.002
12	289607	39.251827398394	1.002
12	290187	39.271827398394	1.002
12	290382	39.291827398394	1.002
12	290510	39.311827398394	1.002
12	290520	39.331827398394	1.002
12	290536	39.351827398394	1.002
12	291116	39.371827398394	1.002
12	291311	39.391827398394	1.002
12	291439	39.411827398394	1.002
12	291449	39.431827398394	1.002
12	291465	39.451827398394	1.002
12	292056	39.471827398394	1.002
12	292251	39.491827398394	1.002
12	292379	39.511827398394	1.002
12	292389	39.531827398394	1.002
12	292405	39.551827398394	1.002
12	292980	39.571827398394	1.002
12	293175	39.591827398394	1.002
12	293303	39.611827398394	1.002
12	293313	39.631827398394	1.002
12	293329	39.651827398394	1.002
12	293920	39.671827398394	1.002
12	294115	39.691827398394	1.002
12	294243	39.711827398394	1.002
12	294253	39.731827398394	1.002
12	294269	39.751827398394	1.002
12	294865	39.771827398394	1.002
12	295060	39.791827398394	1.002
12	295188	39.811827398394	1.002
12	295198	39.831827398394	1.002
12	295214	39.851827398394	1.002
12	295783	39.871827398394	1.002
12	295978	39.891827398394	1.002
12	296106	39.911827398394	1.002
12	296116	39.931827398394	1.002
12	296132	39.951827398394	1.002
12	296739	39.971827398394	1.002
12	296934	39.991827398394	1.002
12	297062	40.011827398394	1.002
12	297072	40.031827398394	1.002
12	297088	40.051827398394	1.002
12	297657	40.071827398394	1.002
12	297852	40.091827398394	1.002
12	297980	40.111827398394	1.002
12	297990	40.131827398394	1.002
12	298006	40.151827398394	1.002
12	298570	40.171827398394	1.002
12	298765	40.191827398394	1.002
12	298893	40.211827398394	1.002
12	298903	40.231827398394	1.002
12	298919	40.251827398394	1.002
12	299526	40.271827398394	1.002
12	299721	40.291827398394	1.002
12	299849	40.311827398394	1.002
12	299859	40.331827398394	1.002
12	299875	40.351827398394	1.002
12	300482	40.371827398394	1.002
12	300677	40.391827398394	1.002
12	300805	40.411827398394	1.002
12	300815	40.431827398394	1.002
12	300831	40.451827398394	1.002
12	301427	40.471827398394	1.002
12	301622	40.491827398394	1.002
12	301750	40.511827398394	1.002
12	301760	40.531827398394	1.002
12	301776	40.551827398394	1.002
12	302356	40.571827398394	1.002
12	302551	40.591827398394	1.002
12	302679	40.611827398394	1.002
12	302689	40.631827398394	1.002
12	302705	40.651827398394	1.002
12	303285	40.671827398394	1.002
12	303480	40.691827398394	1.002
12	303608	40.711827398394	1.002
12	303618	40.731827398394	1.002
12	303634	40.751827398394	1.002
12	304214	40.771827398394	1.002
12	304409	40.791827398394	1.002
12	304537	40.811827398394	1.002
12	304547	40.831827398394	1.002
12	304563	40.851827398394	1.002
12	305132	40.871827398394	1.002
12	305327	40.891827398394	1.002
12	305455	40.911827398394	1.002
12	305465	40.931827398394	1.002
12	305481	40.951827398394	1.002
12	306050	40.971827398394	1.002
12	306245	40.991827398394	1.002
12	306373	41.011827398394	1.002
12	306383	41.031827398394	1.002
12	306399	41.051827398394	1.002
12	306968	41.071827398394	1.002
12	307163	41.091827398394	1.002
12	307291	41.111827398394	1.002
12	307301	41.131827398394	1.002
12	307317	41.151827398394	1.002
12	307886	41.171827398394	1.002
12	308081	41.191827398394	1.002
12	308209	41.211827398394	1.002
12	308219	41.231827398394	1.002
12	308235	41.251827398394	1.002
12	308820	41.271827398394	1.002
12	309015	41.291827398394	1.002
12	309143	41.311827398394	1.002
12	309153	41.331827398394	1.002
12	309169	41.351827398394	1.002
12	309749	41.371827398394	1.002
12	309944	41.391827398394	1.002
12	310072	41.411827398394	1.002
12	310082	41.431827398394	1.002
12	310098	41.451827398394	1.002
12	310678	41.471827398394	1.002
12	310873	41.491827398394	1.002
12	311001	41.511827398394	1.002
12	311011	41.531827398394	1.002
12	311027	41.551827398394	1.002
12	311634	41.571827398394	1.002
12	311829	41.591827398394	1.002
12	311957	41.611827398394	1.002
12	311967	41.631827398394	1.002
12	311983	41.651827398394	1.002
12	312574	41.671827398394	1.002
12	312769	41.691827398394	1.002
12	312897	41.711827398394	1.002
12	312907	41.731827398394	1.002
12	312923	41.751827398394	1.002
12	313492	41.771827398394	1.002
12	313687	41.791827398394	1.002
12	313815	41.811827398394	1.002
12	313825	41.831827398394	1.002
12	313841	41.851827398394	1.002
12	314421	41.871827398394	1.002
12	314616	41.891827398394	1.002
12	314744	41.911827398394	1.002
12	314754	41.931827398394	1.002
12	314770	41.951827398394	1.002
12	315361	41.971827398394	1.002
12	315556	41.991827398394	1.002
12	315684	42.011827398394	1.002
12	315694	42.031827398394	1.002
12	315710	42.051827398394	1.002
12	316290	42.071827398394	1.002
12	316485	42.091827398394	1.002
12	316613	42.111827398394	1.002
12	316623	42.131827398394	1.002
12	316639	42.151827398394	1.002
12	317219	42.171827398394	1.002
12	317414	42.191827398394	1.002
12	317542	42.211827398394	1.002
12	317552	42.231827398394	1.002
12	317568	42.251827398394	1.002
12	318143	42.271827398394	1.002
12	318338	42.291827398394	1.002
12	318466	42.311827398394	1.002
12	318476	42.331827398394	1.002
12	318492	42.351827398394	1.002
12	319083	42.371827398394	1.002
12	319278	42.391827398394	1.002
12	319406	42.411827398394	1.002
12	319416	42.431827398394	1.002
12	319432	42.451827398394	1.002
12	320017	42.471827398394	1.002
12	320212	42.491827398394	1.002
12	320340	42.511827398394	1.002
12	320350	42.531827398394	1.002
12	320366	42.551827398394	1.002
12	320941	42.571827398394	1.002
12	321136	42.591827398394	1.002
12	321264	42.611827398394	1.002
12	321274	42.631827398394	1.002
12	321290	42.651827398394	1.002
12	321865	42.671827398394	1.002
12	322060	42.691827398394	1.002
12	322188	42.711827398394	1.002
12	322198	42.731827398394	1.002
12	322214	42.751827398394	1.002
12	322810	42.771827398394	1.002
12	323005	42.791827398394	1.002
12	323133	42.811827398394	1.002
12	323143	42.831827398394	1.002
12	323159	42.851827398394	1.002
12	323723	42.871827398394	1.002
12	323918	42.891827398394	1.002
12	324046	42.911827398394	1.002
12	324056	42.931827398394	1.002
12	324072	42.951827398394	1.002
12	324647	42.971827398394	1.002
12	324842	42.991827398394	1.002
12	324970	43.011827398394	1.002
12	324980	43.031827398394	1.002
12	324996	43.051827398394	1.002
12	325560	43.071827398394	1.002
12	325755	43.091827398394	1.002
12	325883	43.111827398394	1.002
12	325893	43.131827398394	1.002
12	325909	43.151827398394	1.002
12	326532	43.171827398394	1.002
12	326727	43.191827398394	1.002
12	326855	43.211827398394	1.002
12	326865	43.231827398394	1.002
12	326881	43.251827398394	1.002
12	327461	43.271827398394	1.002
12	327656	43.291827398394	1.002
12	327784	43.311827398394	1.002
12	327794	43.331827398394	1.002
12	327810	43.351827398394	1.002
12	328401	43.371827398394	1.002
12	328596	43.391827398394	1.002
12	328724	43.411827398394	1.002
12	328734	43.431827398394	1.002
12	328750	43.451827398394	1.002
12	329314	43.471827398394	1.002
12	329509	43.491827398394	1.002
12	329637	43.511827398394	1.002
12	329647	43.531827398394	1.002
12	329663	43.551827398394	1.002
12	330254	43.571827398394	1.002
12	330449	43.591827398394	1.002
12	330577	43.611827398394	1.002
12	330587	43.631827398394	1.002
12	330603	43.651827398394	1.002
12	331194	43.671827398394	1.002
12	331389	43.691827398394	1.002
12	331517	43.711827398394	1.002
12	331527	43.731827398394	1.002
12	331543	43.751827398394	1.002
12	332134	43.771827398394	1.002
12	332329	43.791827398394	1.002
12	332457	43.811827398394	1.002
12	332467	43.831827398394	1.002
12	332483	43.851827398394	1.002
12	333063	43.871827398394	1.002
12	333258	43.891827398394	1.002
12	333386	43.911827398394	1.002
12	333396	43.931827398394	1.002
12	333412	43.951827398394	1.002
12	334008	43.971827398394	1.002
12	334203	43.991827398394	1.002
12	334331	44.011827398394	1.002
12	334341	44.031827398394	1.002
12	334357	44.051827398394	1.002
12	334937	44.071827398394	1.002
12	335132	44.091827398394	1.002
12	335260	44.111827398394	1.002
12	335270	44.131827398394	1.002
12	335286	44.151827398394	1.002
12	335866	44.171827398394	1.002
12	336061	44.191827398394	1.002
12	336189	44.211827398394	1.002
12	336199	44.231827398394	1.002
12	336215	44.251827398394	1.002
12	336795	44.271827398394	1.002
12	336990	44.291827398394	1.002
12	337118	44.311827398394	1.002
12	337128	44.331827398394	1.002
12	337144	44.351827398394	1.002
12	337767	44.371827398394	1.002
12	337962	44.391827398394	1.002
12	338090	44.411827398394	1.002
12	338100	44.431827398394	1.002
12	338116	44.451827398394	1.002
12	338707	44.471827398394	1.002
12	338902	44.491827398394	1.002
12	339030	44.511827398394	1.002
12	339040	44.531827398394	1.002
12	339056	44.551827398394	1.002
12	339636	44.571827398394	1.002
12	339831	44.591827398394	1.002
12	339959	44.611827398394	1.002
12	339969	44.631827398394	1.002
12	339985	44.651827398394	1.002
12	340565	44.671827398394	1.002
12	340760	44.691827398394	1.002
12	340888	44.711827398394	1.002
12	340898	44.731827398394	1.002
12	340914	44.751827398394	1.002
12	341494	44.771827398394	1.002
12	341689	44.791827398394	1.002
12	341817	44.811827398394	1.002
12	341827	44.831827398394	1.002
12	341843	44.851827398394	1.002
12	342407	44.871827398394	1.002
12	342602	44.891827398394	1.002
12	342730	44.911827398394	1.002
12	342740	44.931827398394	1.002
12	342756	44.951827398394	1.002
12	343347	44.971827398394	1.002
12	343542	44.991827398394	1.002
12	343670	45.011827398394	1.002
12	343680	45.031827398394	1.002
12	343696	45.051827398394	1.002
12	344260	45.071827398394	1.002
12	344455	45.091827398394	1.002
12	344583	45.111827398394	1.002
12	344593	45.131827398394	1.002
12	344609	45.151827398394	1.002
12	345173	45.171827398394	1.002
12	345368	45.191827398394	1.002
12	345496	45.211827398394	1.002
12	345506	45.231827398394	1.002
12	345522	45.251827398394	1.002
12	346102	45.271827398394	1.002
12	346297	45.291827398394	1.002
12	346425	45.311827398394	1.002
12	346435	45.331827398394	1.002
12	346451	45.351827398394	1.002
12	347026	45.371827398394	1.002
12	347221	45.391827398394	1.002
12	347349	45.411827398394	1.002
12	347359	45.431827398394	1.002
12	347375	45.451827398394	1.002
12	347950	45.471827398394	1.002
12	348145	45.491827398394	1.002
12	348273	45.511827398394	1.002
12	348283	45.531827398394	1.002
12	348299	45.551827398394	1.002
12	348884	45.571827398394	1.002
12	349079	45.591827398394	1.002
12	349207	45.611827398394	1.002
12	349217	45.631827398394	1.002
12	349233	45.651827398394	1.002
12	349829	45.671827398394	1.002
12	350024	45.691827398394	1.002
12	350152	45.711827398394	1.002
12	350162	45.731827398394	1.002
12	350178	45.751827398394	1.002
12	350753	45.771827398394	1.002
12	350948	45.791827398394	1.002
12	351076	45.811827398394	1.002
12	351086	45.831827398394	1.002
12	351102	45.851827398394	1.002
12	351698	45.871827398394	1.002
12	351893	45.891827398394	1.002
12	352021	45.911827398394	1.002
12	352031	45.931827398394	1.002
12	352047	45.951827398394	1.002
12	352627	45.971827398394	1.002
12	352822	45.991827398394	1.002
12	352950	46.011827398394	1.002
12	352960	46.031827398394	1.002
12	352976	46.051827398394	1.002
12	353545	46.071827398394	1.002
12	353740	46.091827398394	1.002
12	353868	46.111827398394	1.002
12	353878	46.131827398394	1.002
12	353894	46.151827398394	1.002
12	354474	46.171827398394	1.002
12	354669	46.191827398394	1.002
12	354797	46.211827398394	1.002
12	354807	46.231827398394	1.002
12	354823	46.251827398394	1.002
12	355414	46.271827398394	1.002
12	355609	46.291827398394	1.002
12	355737	46.311827398394	1.002
12	355747	46.331827398394	1.002
12	355763	46.351827398394	1.002
12	356332	46.371827398394	1.002
12	356527	46.391827398394	1.002
12	356655	46.411827398394	1.002
12	356665	46.431827398394	1.002
12	356681	46.451827398394	1.002
12	357256	46.471827398394	1.002
12	357451	46.491827398394	1.002
12	357579	46.511827398394	1.002
12	357589	46.531827398394	1.002
12	357605	46.551827398394	1.002
12	358196	46.571827398394	1.002
12	358391	46.591827398394	1.002
12	358519	46.611827398394	1.002
12	358529	46.631827398394	1.002
12	358545	46.651827398394	1.002
12	359109	46.671827398394	1.002
12	359304	46.691827398394	1.002
12	359432	46.711827398394	1.002
12	359442	46.731827398394	1.002
12	359458	46.751827398394	1.002
12	360022	46.771827398394	1.002
12	360217	46.791827398394	1.002
12	360345	46.811827398394	1.002
12	360355	46.831827398394	1.002
12	360371	46.851827398394	1.002
12	360951	46.871827398394	1.002
12	361146	46.891827398394	1.002
12	361274	46.911827398394	1.002
12	361284	46.931827398394	1.002
12	361300	46.951827398394	1.002
12	361875	46.971827398394	1.002
12	362070	46.991827398394	1.002
12	362198	47.011827398394	1.002
12	362208	47.031827398394	1.002
12	362224	47.051827398394	1.002
12	362815	47.071827398394	1.002
12	363010	47.091827398394	1.002
12	363138	47.111827398394	1.002
12	363148	47.131827398394	1.002
12	363164	47.151827398394	1.002
12	363755	47.171827398394	1.002
12	363950	47.191827398394	1.002
12	364078	47.211827398394	1.002
12	364088	47.231827398394	1.002
12	364104	47.251827398394	1.002
12	364695	47.271827398394	1.002
12	364890	47.291827398394	1.002
12	365018	47.311827398394	1.002
12	365028	47.331827398394	1.002
12	365044	47.351827398394	1.002
12	365608	47.371827398394	1.002
12	365803	47.391827398394	1.002
12	365931	47.411827398394	1.002
12	365941	47.431827398394	1.002
12	365957	47.451827398394	1.002
12	366521	47.471827398394	1.002
12	366716	47.491827398394	1.002
12	366844	47.511827398394	1.002
12	366854	47.531827398394	1.002
12	366870	47.551827398394	1.002
12	367461	47.571827398394	1.002
12	367656	47.591827398394	1.002
12	367784	47.611827398394	1.002
12	367794	47.631827398394	1.002
12	367810	47.651827398394	1.002
12	368374	47.671827398394	1.002
12	368569	47.691827398394	1.002
12	368697	47.711827398394	1.002
12	368707	47.731827398394	1.002
12	368723	47.751827398394	1.002
12	369298	47.771827398394	1.002
12	369493	47.791827398394	1.002
12	369621	47.811827398394	1.002
12	369631	47.831827398394	1.002
12	369647	47.851827398394	1.002
12	370238	47.871827398394	1.002
12	370433	47.891827398394	1.002
12	370561	47.911827398394	1.002
12	370571	47.931827398394	1.002
12	370587	47.951827398394	1.002
12	371178	47.971827398394	1.002
12	371373	47.991827398394	1.002
12	371501	48.011827398394	1.002
12	371511	48.031827398394	1.002
12	371527	48.051827398394	1.002
12	372123	48.071827398394	1.002
[...]
9	311024	41.550253279723	1
9	311950	41.600253279723	1.001
9	311980	41.650253279723	1
9	312890	41.700253279723	1.001
9	312920	41.750253279723	1
9	313808	41.800253279723	1.001
9	313838	41.850253279723	1
9	314737	41.900253279723	1.001
9	314767	41.950253279723	1
9	315677	42.000253279723	1.001
9	315707	42.050253279723	1
9	316606	42.100253279723	1.001
9	316636	42.150253279723	1
9	317535	42.200253279723	1.001
9	317565	42.250253279723	1
9	318459	42.300253279723	1.001
9	318489	42.350253279723	1
9	319399	42.400253279723	1.001
9	319429	42.450253279723	1
9	320333	42.500253279723	1.001
9	320363	42.550253279723	1
9	321257	42.600253279723	1.001
9	321287	42.650253279723	1
9	322181	42.700253279723	1.001
9	322211	42.750253279723	1
9	323126	42.800253279723	1.001
9	323156	42.850253279723	1
9	324039	42.900253279723	1.001
9	324069	42.950253279723	1
9	324963	43.000253279723	1.001
9	324993	43.050253279723	1
9	325876	43.100253279723	1.001
9	325906	43.150253279723	1
9	326848	43.200253279723	1.001
9	326878	43.250253279723	1
9	327777	43.300253279723	1.001
9	327807	43.350253279723	1
9	328717	43.400253279723	1.001
9	328747	43.450253279723	1
9	329630	43.500253279723	1.001
9	329660	43.550253279723	1
9	330570	43.600253279723	1.001
9	330600	43.650253279723	1
9	331510	43.700253279723	1.001
9	331540	43.750253279723	1
9	332450	43.800253279723	1.001
9	332480	43.850253279723	1
9	333379	43.900253279723	1.001
9	333409	43.950253279723	1
9	334324	44.000253279723	1.001
9	334354	44.050253279723	1
9	335253	44.100253279723	1.001
9	335283	44.150253279723	1
9	336182	44.200253279723	1.001
9	336212	44.250253279723	1
9	337111	44.300253279723	1.001
9	337141	44.350253279723	1
9	338083	44.400253279723	1.001
9	338113	44.450253279723	1
9	339023	44.500253279723	1.001
9	339053	44.550253279723	1
9	339952	44.600253279723	1.001
9	339982	44.650253279723	1
9	340881	44.700253279723	1.001
9	340911	44.750253279723	1
9	341810	44.800253279723	1.001
9	341840	44.850253279723	1
9	342723	44.900253279723	1.001
9	342753	44.950253279723	1
9	343663	45.000253279723	1.001
9	343693	45.050253279723	1
9	344576	45.100253279723	1.001
9	344606	45.150253279723	1
9	345489	45.200253279723	1.001
9	345519	45.250253279723	1
9	346418	45.300253279723	1.001
9	346448	45.350253279723	1
9	347342	45.400253279723	1.001
9	347372	45.450253279723	1
9	348266	45.500253279723	1.001
9	348296	45.550253279723	1
9	349200	45.600253279723	1.001
9	349230	45.650253279723	1
9	350145	45.700253279723	1.001
9	350175	45.750253279723	1
9	351069	45.800253279723	1.001
9	351099	45.850253279723	1
9	352014	45.900253279723	1.001
9	352044	45.950253279723	1
9	352943	46.000253279723	1.001
9	352973	46.050253279723	1
9	353861	46.100253279723	1.001
9	353891	46.150253279723	1
9	354790	46.200253279723	1.001
9	354820	46.250253279723	1
9	355730	46.300253279723	1.001
9	355760	46.350253279723	1
9	356648	46.400253279723	1.001
9	356678	46.450253279723	1
9	357572	46.500253279723	1.001
9	357602	46.550253279723	1
9	358512	46.600253279723	1.001
9	358542	46.650253279723	1
9	359425	46.700253279723	1.001
9	359455	46.750253279723	1
9	360338	46.800253279723	1.001
9	360368	46.850253279723	1
9	361267	46.900253279723	1.001
9	361297	46.950253279723	1
9	362191	47.000253279723	1.001
9	362221	47.050253279723	1
9	363131	47.100253279723	1.001
9	363161	47.150253279723	1
9	364071	47.200253279723	1.001
9	364101	47.250253279723	1
9	365011	47.300253279723	1.001
9	365041	47.350253279723	1
9	365924	47.400253279723	1.001
9	365954	47.450253279723	1
9	366837	47.500253279723	1.001
9	366867	47.550253279723	1
9	367777	47.600253279723	1.001
9	367807	47.650253279723	1
9	368690	47.700253279723	1.001
9	368720	47.750253279723	1
9	369614	47.800253279723	1.001
9	369644	47.850253279723	1
9	370554	47.900253279723	1.001
9	370584	47.950253279723	1
9	371494	48.000253279723	1.001
9	371524	48.050253279723	1
9	372439	48.100253279723	1.001
9	372469	48.150253279723	1
9	373363	48.200253279723	1.001
9	373393	48.250253279723	1
9	374292	48.300253279723	1.001
9	374322	48.350253279723	1
9	375248	48.400253279723	1.001
9	375278	48.450253279723	1
9	376193	48.500253279723	1.001
9	376223	48.550253279723	1
9	377106	48.600253279723	1.001
9	377136	48.650253279723	1
9	378051	48.700253279723	1.001
9	378081	48.750253279723	1
9	378980	48.800253279723	1.001
9	379010	48.850253279723	1
9	379920	48.900253279723	1.001
9	379950	48.950253279723	1
9	380838	49.000253279723	1.001
9	380868	49.050253279723	1
9	381762	49.100253279723	1.001
9	381792	49.150253279723	1
9	382702	49.200253279723	1.001
9	382732	49.250253279723	1
9	383631	49.300253279723	1.001
9	383661	49.350253279723	1
9	384555	49.400253279723	1.001
9	384585	49.450253279723	1
9	385484	49.500253279723	1.001
9	385514	49.550253279723	1
9	386440	49.600253279723	1.001
9	386470	49.650253279723	1
9	387353	49.700253279723	1.001
9	387383	49.750253279723	1
9	388277	49.800253279723	1.001
9	388307	49.850253279723	1
9	389201	49.900253279723	1.001
9	389231	49.950253279723	1
9	390114	50.000253279723	1.001
9	390144	50.050253279723	1
9	391054	50.100253279723	1.001
9	391084	50.150253279723	1
9	391962	50.200253279723	1.001
9	391992	50.250253279723	1
9	392902	50.300253279723	1.001
9	392932	50.350253279723	1
9	393815	50.400253279723	1.001
9	393845	50.450253279723	1
9	394744	50.500253279723	1.001
9	394774	50.550253279723	1
9	395700	50.600253279723	1.001
9	395730	50.650253279723	1
9	396656	50.700253279723	1.001
9	396686	50.750253279723	1
9	397596	50.800253279723	1.001
9	397626	50.850253279723	1
9	398519	50.900253279723	1.001
9	398549	50.950253279723	1
9	399453	51.000253279723	1.001
9	399483	51.050253279723	1
9	400382	51.100253279723	1.001
9	400412	51.150253279723	1
9	401327	51.200253279723	1.001
9	401357	51.250253279723	1
9	402240	51.300253279723	1.001
9	402270	51.350253279723	1
9	403153	51.400253279723	1.001
9	403183	51.450253279723	1
9	404093	51.500253279723	1.001
9	404123	51.550253279723	1
9	405022	51.600253279723	1.001
9	405052	51.650253279723	1
9	405946	51.700253279723	1.001
9	405976	51.750253279723	1
9	406880	51.800253279723	1.001
9	406910	51.850253279723	1
9	407804	51.900253279723	1.001
9	407834	51.950253279723	1
9	408717	52.000253279723	1.001
9	408747	52.050253279723	1
9	409651	52.100253279723	1.001
9	409681	52.150253279723	1
9	410580	52.200253279723	1.001
9	410610	52.250253279723	1
9	411509	52.300253279723	1.001
9	411539	52.350253279723	1
9	412438	52.400253279723	1.001
9	412468	52.450253279723	1
9	413383	52.500253279723	1.001
9	413413	52.550253279723	1
9	414328	52.600253279723	1.001
9	414358	52.650253279723	1
9	415252	52.700253279723	1.001
9	415282	52.750253279723	1
9	416181	52.800253279723	1.001
9	416211	52.850253279723	1
9	417121	52.900253279723	1.001
9	417151	52.950253279723	1
9	418034	53.000253279723	1.001
9	418064	53.050253279723	1
9	418958	53.100253279723	1.001
9	418988	53.150253279723	1
9	419871	53.200253279723	1.001
9	419901	53.250253279723	1
9	420784	53.300253279723	1.001
9	420814	53.350253279723	1
9	421713	53.400253279723	1.001
9	421743	53.450253279723	1
9	422642	53.500253279723	1.001
9	422672	53.550253279723	1
9	423560	53.600253279723	1.001
9	423590	53.650253279723	1
9	424500	53.700253279723	1.001
9	424530	53.750253279723	1
9	425434	53.800253279723	1.001
9	425464	53.850253279723	1
9	426374	53.900253279723	1.001
9	426404	53.950253279723	1
9	427346	54.000253279723	1.001
9	427376	54.050253279723	1
9	428280	54.100253279723	1.001
9	428310	54.150253279723	1
9	429225	54.200253279723	1.001
9	429255	54.250253279723	1
9	430149	54.300253279723	1.001
9	430179	54.350253279723	1
9	431067	54.400253279723	1.001
9	431097	54.450253279723	1
9	431991	54.500253279723	1.001
9	432021	54.550253279723	1
9	432915	54.600253279723	1.001
9	432945	54.650253279723	1
9	433839	54.700253279723	1.001
9	433869	54.750253279723	1
9	434800	54.800253279723	1.001
9	434830	54.850253279723	1
9	435724	54.900253279723	1.001
9	435754	54.950253279723	1
9	436680	55.000253279723	1.001
9	436710	55.050253279723	1
9	437609	55.100253279723	1.001
9	437639	55.150253279723	1
9	438549	55.200253279723	1.001
9	438579	55.250253279723	1
9	439494	55.300253279723	1.001
9	439524	55.350253279723	1
9	440423	55.400253279723	1.001
9	440453	55.450253279723	1
9	441357	55.500253279723	1.001
9	441387	55.550253279723	1
9	442291	55.600253279723	1.001
9	442321	55.650253279723	1
9	443236	55.700253279723	1.001
9	443266	55.750253279723	1
9	444165	55.800253279723	1.001
9	444195	55.850253279723	1
9	445089	55.900253279723	1.001
9	445119	55.950253279723	1
9	446018	56.000253279723	1.001
9	446048	56.050253279723	1
9	446942	56.100253279723	1.001
9	446972	56.150253279723	1
9	447882	56.200253279723	1.001
9	447912	56.250253279723	1
9	448806	56.300253279723	1.001
9	448836	56.350253279723	1
9	449735	56.400253279723	1.001
9	449765	56.450253279723	1
9	450680	56.500253279723	1.001
9	450710	56.550253279723	1
9	451609	56.600253279723	1.001
9	451639	56.650253279723	1
9	452549	56.700253279723	1.001
9	452579	56.750253279723	1
9	453494	56.800253279723	1.001
9	453524	56.850253279723	1
9	454423	56.900253279723	1.001
9	454453	56.950253279723	1
9	455352	57.000253279723	1.001
9	455382	57.050253279723	1
9	456281	57.100253279723	1.001
9	456311	57.150253279723	1
9	457221	57.200253279723	1.001
9	457251	57.250253279723	1
9	458161	57.300253279723	1.001
9	458191	57.350253279723	1
9	459101	57.400253279723	1.001
9	459131	57.450253279723	1
9	460030	57.500253279723	1.001
9	460060	57.550253279723	1
9	460970	57.600253279723	1.001
9	461000	57.650253279723	1
9	461904	57.700253279723	1.001
9	461934	57.750253279723	1
9	462806	57.800253279723	1.001
9	462836	57.850253279723	1
9	463719	57.900253279723	1.001
9	463749	57.950253279723	1
9	464632	58.000253279723	1.001
9	464662	58.050253279723	1
9	465572	58.100253279723	1.001
9	465602	58.150253279723	1
9	466485	58.200253279723	1.001
9	466515	58.250253279723	1
9	467409	58.300253279723	1.001
9	467439	58.350253279723	1
9	468343	58.400253279723	1.001
9	468373	58.450253279723	1
9	469277	58.500253279723	1.001
9	469307	58.550253279723	1
9	470233	58.600253279723	1.001
9	470263	58.650253279723	1
9	471162	58.700253279723	1.001
9	471192	58.750253279723	1
9	472102	58.800253279723	1.001
9	472132	58.850253279723	1
9	473015	58.900253279723	1.001
9	473045	58.950253279723	1
9	473928	59.000253279723	1.001
9	473958	59.050253279723	1
9	474868	59.100253279723	1.001
9	474898	59.150253279723	1
9	475797	59.200253279723	1.001
9	475827	59.250253279723	1
9	476726	59.300253279723	1.001
9	476756	59.350253279723	1
9	477666	59.400253279723	1.001
9	477696	59.450253279723	1
9	478584	59.500253279723	1.001
9	478614	59.550253279723	1
9	479497	59.600253279723	1.001
9	479527	59.650253279723	1
9	480453	59.700253279723	1.001
9	480483	59.750253279723	1
9	481393	59.800253279723	1.001
9	481423	59.850253279723	1
9	482322	59.900253279723	1.001
9	482352	59.950253279723	1
9	483267	60.000253279723	1.001
9	483297	60.050253279723	1
9	484201	60.100253279723	1.001
9	484231	60.150253279723	1
9	485125	60.200253279723	1.001
9	485155	60.250253279723	1
9	486049	60.300253279723	1.001
9	486079	60.350253279723	1
9	486978	60.400253279723	1.001
9	487008	60.450253279723	1
9	487907	60.500253279723	1.001
9	487937	60.550253279723	1
9	488831	60.600253279723	1.001
9	488861	60.650253279723	1
9	489771	60.700253279723	1.001
9	489801	60.750253279723	1
9	490700	60.800253279723	1.001
9	490730	60.850253279723	1
9	491618	60.900253279723	1.001
9	491648	60.950253279723	1
9	492531	61.000253279723	1.001
9	492561	61.050253279723	1
9	493455	61.100253279723	1.001
9	493485	61.150253279723	1
9	494384	61.200253279723	1.001
9	494414	61.250253279723	1
9	495313	61.300253279723	1.001
9	495343	61.350253279723	1
9	496242	61.400253279723	1.001
9	496272	61.450253279723	1
9	497171	61.500253279723	1.001
9	497201	61.550253279723	1
9	498100	61.600253279723	1.001
9	498130	61.650253279723	1
9	499022	61.700253279723	1.001
9	499047	61.750253279723	1
9	499680	61.800253279723	1.001
9	499705	61.850253279723	1
9	500325	61.900253279723	1.001
9	500350	61.950253279723	1
9	500970	62.000253279723	1.001
9	500995	62.050253279723	1
9	501628	62.100253279723	1.001
9	501653	62.150253279723	1
9	502273	62.200253279723	1.001
9	502298	62.250253279723	1
9	502905	62.300253279723	1.001
9	502930	62.350253279723	1
9	503550	62.400253279723	1.001
9	503575	62.450253279723	1
9	504186	62.500253279723	1.001
9	504211	62.550253279723	1
9	504818	62.600253279723	1.001
9	504843	62.650253279723	1
9	505463	62.700253279723	1.001
9	505488	62.750253279723	1
9	506108	62.800253279723	1.001
9	506133	62.850253279723	1
9	506753	62.900253279723	1.001
9	506778	62.950253279723	1
9	507424	63.000253279723	1.001
9	507449	63.050253279723	1
9	508082	63.100253279723	1.001
9	508107	63.150253279723	1
9	508740	63.200253279723	1.001
9	508765	63.250253279723	1
9	509372	63.300253279723	1.001
9	509397	63.350253279723	1
9	510017	63.400253279723	1.001
9	510042	63.450253279723	1
9	510653	63.500253279723	1.001
9	510678	63.550253279723	1
9	511298	63.600253279723	1.001
9	511323	63.650253279723	1
9	511943	63.700253279723	1.001
9	511968	63.750253279723	1
9	512588	63.800253279723	1.001
9	512613	63.850253279723	1
9	513233	63.900253279723	1.001
9	513258	63.950253279723	1
9	513891	64.000253279723	1.001
9	513916	64.050253279723	1
9	514549	64.100253279723	1.001
9	514574	64.150253279723	1
9	515181	64.200253279723	1.001
9	515206	64.250253279723	1
9	515817	64.300253279723	1.001
9	515842	64.350253279723	1
9	516475	64.400253279723	1.001
9	516500	64.450253279723	1
9	517111	64.500253279723	1.001
9	517136	64.550253279723	1
9	517768	64.600253279723	1.001
9	517788	64.650253279723	1
9	518172	64.700253279723	1.001
9	518192	64.750253279723	1
9	518566	64.800253279723	1.001
9	518586	64.850253279723	1
9	518970	64.900253279723	1.001
9	518990	64.950253279723	1
9	519364	65.000253279723	1.001
9	519384	65.050253279723	1
9	519768	65.100253279723	1.001
9	519788	65.150253279723	1
9	520172	65.200253279723	1.001
9	520192	65.250253279723	1
9	520586	65.300253279723	1.001
9	520606	65.350253279723	1
9	520990	65.400253279723	1.001
9	521010	65.450253279723	1
9	521384	65.500253279723	1.001
9	521404	65.550253279723	1
9	521778	65.600253279723	1.001
9	521798	65.650253279723	1
9	522182	65.700253279723	1.001
9	522202	65.750253279723	1
9	522586	65.800253279723	1.001
9	522606	65.850253279723	1
9	522990	65.900253279723	1.001
9	523010	65.950253279723	1
9	523394	66.000253279723	1.001
9	523414	66.050253279723	1
9	523788	66.100253279723	1.001
9	523808	66.150253279723	1
9	524202	66.200253279723	1.001
9	524222	66.250253279723	1
9	524616	66.300253279723	1.001
9	524636	66.350253279723	1
9	525010	66.400253279723	1.001
9	525030	66.450253279723	1
9	525414	66.500253279723	1.001
9	525434	66.550253279723	1
9	525828	66.600253279723	1.001
9	525848	66.650253279723	1
9	526242	66.700253279723	1.001
9	526262	66.750253279723	1
9	526656	66.800253279723	1.001
9	526676	66.850253279723	1
9	527060	66.900253279723	1.001
9	527080	66.950253279723	1
9	527464	67.000253279723	1.001
9	527484	67.050253279723	1
9	527868	67.100253279723	1.001
9	527888	67.150253279723	1
9	528262	67.200253279723	1.001
9	528282	67.250253279723	1
9	528656	67.300253279723	1.001
9	528676	67.350253279723	1
9	529060	67.400253279723	1.001
9	529080	67.450253279723	1
9	529454	67.500253279723	1.001
9	529474	67.550253279723	1
9	529847	67.600253279723	1.001
9	529862	67.650253279723	1
9	530057	67.700253279723	1.001
9	530072	67.750253279723	1
9	530267	67.800253279723	1.001
9	530282	67.850253279723	1
9	530484	67.900253279723	1.001
9	530499	67.950253279723	1
9	530694	68.000253279723	1.001
9	530709	68.050253279723	1
9	530904	68.100253279723	1.001
9	530919	68.150253279723	1
9	531121	68.200253279723	1.001
9	531136	68.250253279723	1
9	531331	68.300253279723	1.001
9	531346	68.350253279723	1
9	531548	68.400253279723	1.001
9	531563	68.450253279723	1
9	531758	68.500253279723	1.001
9	531773	68.550253279723	1
9	531975	68.600253279723	1.001
9	531990	68.650253279723	1
9	532185	68.700253279723	1.001
9	532200	68.750253279723	1
9	532395	68.800253279723	1.001
9	532410	68.850253279723	1
9	532605	68.900253279723	1.001
9	532620	68.950253279723	1
9	532815	69.000253279723	1.001
9	532830	69.050253279723	1
9	533025	69.100253279723	1.001
9	533040	69.150253279723	1
9	533235	69.200253279723	1.001
9	533250	69.250253279723	1
9	533445	69.300253279723	1.001
9	533460	69.350253279723	1
9	533662	69.400253279723	1.001
9	533677	69.450253279723	1
9	533879	69.500253279723	1.001
9	533894	69.550253279723	1
9	534089	69.600253279723	1.001
9	534104	69.650253279723	1
9	534306	69.700253279723	1.001
9	534321	69.750253279723	1
9	534516	69.800253279723	1.001
9	534531	69.850253279723	1
9	534733	69.900253279723	1.001
9	534748	69.950253279723	1
9	534943	70.000253279723	1.001
9	534958	70.050253279723	1
9	535160	70.100253279723	1.001
9	535175	70.150253279723	1
9	535370	70.200253279723	1.001
9	535385	70.250253279723	1
9	535580	70.300253279723	1.001
9	535595	70.350253279723	1
9	535790	70.400253279723	1.001
9	535805	70.450253279723	1
9	536007	70.500253279723	1.001
9	536022	70.550253279723	1
9	536210	70.600253279723	1.001
9	536225	70.650253279723	1
9	536427	70.700253279723	1.001
9	536435	70.750253279723	1
9	536507	70.800253279723	1.001
9	536515	70.850253279723	1
9	536587	70.900253279723	1.001
9	536595	70.950253279723	1
9	536667	71.000253279723	1.001
9	536675	71.050253279723	1
9	536747	71.100253279723	1.001
9	536755	71.150253279723	1
9	536827	71.200253279723	1.001
9	536835	71.250253279723	1
9	536907	71.300253279723	1.001
9	536915	71.350253279723	1
9	536987	71.400253279723	1.001
9	536995	71.450253279723	1
9	537067	71.500253279723	1.001
9	537075	71.550253279723	1
9	537147	71.600253279723	1.001
9	537155	71.650253279723	1
9	537227	71.700253279723	1.001
9	537235	71.750253279723	1
9	537307	71.800253279723	1.001
9	537315	71.850253279723	1
9	537387	71.900253279723	1.001
9	537395	71.950253279723	1
9	537467	72.000253279723	1.001
9	537475	72.050253279723	1
9	537547	72.100253279723	1.001
9	537555	72.150253279723	1
9	537627	72.200253279723	1.001
9	537635	72.250253279723	1
9	537707	72.300253279723	1.001
9	537715	72.350253279723	1
9	537787	72.400253279723	1.001
9	537795	72.450253279723	1
9	537867	72.500253279723	1.001
9	537875	72.550253279723	1
9	537947	72.600253279723	1.001
9	537955	72.650253279723	1
9	538027	72.700253279723	1.001
9	538035	72.750253279723	1
9	538107	72.800253279723	1.001
9	538115	72.850253279723	1
9	538187	72.900253279723	1.001
9	538195	72.950253279723	1
9	538267	73.000253279723	1.001
9	538275	73.050253279723	1
9	538347	73.100253279723	1.001
9	538355	73.150253279723	1
9	538427	73.200253279723	1.001
9	538435	73.250253279723	1
9	538507	73.300253279723	1.001
9	538515	73.350253279723	1
9	538587	73.400253279723	1.001
9	538595	73.450253279723	1
9	538667	73.500253279723	1.001
9	538675	73.550253279723	1
9	538747	73.600253279723	1.001
9	538748	73.650253279723	1
9	538749	73.700253279723	1.001
9	538750	73.750253279723	1
9	538751	73.800253279723	1.001
9	538752	73.850253279723	1
9	538753	73.900253279723	1.001
9	538754	73.950253279723	1
9	538755	74.000253279723	1.001
9	538756	74.050253279723	1
9	538757	74.100253279723	1.001
9	538758	74.150253279723	1
9	538759	74.200253279723	1.001
9	538760	74.250253279723	1
9	538761	74.300253279723	1.001
9	538762	74.350253279723	1
9	538763	74.400253279723	1.001
9	538764	74.450253279723	1
9	538765	74.500253279723	1.001
9	538766	74.550253279723	1
9	538767	74.600253279723	1.001
9	538768	74.650253279723	1
9	538769	74.700253279723	1.001
9	538770	74.750253279723	1
9	538771	74.800253279723	1.001
9	538772	74.850253279723	1
9	538773	74.900253279723	1.001
9	538774	74.950253279723	1
9	538775	75.000253279723	1.001
9	538776	75.050253279723	1
9	538777	75.100253279723	1.001
9	538778	75.150253279723	1
9	538779	75.200253279723	1.001
9	538780	75.250253279723	1
9	538781	75.300253279723	1.001
9	538782	75.350253279723	1
9	538783	75.400253279723	1.001
9	538784	75.450253279723	1
9	538785	75.500253279723	1.001
9	538786	75.550253279723	1
9	538787	75.600253279723	1.001
9	538788	75.650253279723	1
9	538789	75.700253279723	1.001
9	538790	75.750253279723	1
9	538791	75.800253279723	1.001
9	538792	75.850253279723	1
9	538793	75.900253279723	1.001
9	538794	75.950253279723	1
