version 2
run VoIP-50ms_200B-0-20160909-12:06:08-11383
attr configname VoIP-50ms_200B
attr datetime 20160909-12:06:08
attr experiment VoIP-50ms_200B
attr inifile omnetpp.ini
attr iterationvars ""
attr iterationvars2 $repetition=0
attr measurement ""
attr network SymScenerio
attr processid 11383
attr repetition 0
attr replication #0
attr resultdir results
attr runnumber 0
attr seedset 0
param **.coreDebug false
param **.debug false
param *.**.nic.mac1609_4.bitrate 18Mbps
param *.**.nic.mac1609_4.txPower 20mW
param *.**.nic.mac1609_4.useServiceChannel true
param *.**.nic.phy80211p.analogueModels "xmldoc(\"config.xml\")"
param *.**.nic.phy80211p.decider "xmldoc(\"config.xml\")"
param *.**.nic.phy80211p.sensitivity -89dBm
param *.**.nic.phy80211p.thermalNoise -110dBm
param *.**.nic.phy80211p.usePropagationDelay true
param *.**.nic.phy80211p.useThermalNoise true
param *.annotations.draw false
param *.connectionManager.alpha 2.0
param *.connectionManager.carrierFrequency "5.890e9 Hz"
param *.connectionManager.pMax 20mW
param *.connectionManager.sat -89dBm
param *.connectionManager.sendDirect true
param *.manager.autoShutdown true
param *.manager.host "\"localhost\""
param *.manager.launchConfig "xmldoc(\"map.launchd.xml\")"
param *.manager.margin 25
param *.manager.moduleDisplayString "\"\""
param *.manager.moduleName "\"node\""
param *.manager.moduleType "\"symulacja.veins.nodes.Car\""
param *.manager.port 9999
param *.manager.updateInterval 0.1s
param *.node[*].appl.beaconInterval 1s
param *.node[*].appl.beaconPriority 3
param *.node[*].appl.dataOnSch false
param *.node[*].appl.dataPriority 2
param *.node[*].appl.debug false
param *.node[*].appl.maxOffset 0.005s
param *.node[*].appl.sendBeacons false
param *.node[*].appl.sendData true
param *.node[*].appl.sendVoIP true
param *.node[*].appl.voipInterval 0.020s
param *.node[*].appl.voipLengthBits "200 bits"
param *.node[*].appl.voipOnSch true
param *.node[*].appl.voipPriority 3
param *.node[*].applType "\"Sym11p\""
param *.node[*].veinsmobility.x 0
param *.node[*].veinsmobility.y 0
param *.node[*].veinsmobility.z 1.895
param *.node[*].veinsmobilityType "\"symulacja.veins.modules.mobility.traci.TraCIMobility\""
param *.playgroundSizeX 9000m
param *.playgroundSizeY 9000m
param *.playgroundSizeZ 50m
param *.rsu[*].appl.beaconInterval 1s
param *.rsu[*].appl.beaconPriority 3
param *.rsu[*].appl.dataOnSch false
param *.rsu[*].appl.dataPriority 2
param *.rsu[*].appl.debug false
param *.rsu[*].appl.headerLength "256 bit"
param *.rsu[*].appl.maxOffset 0.005s
param *.rsu[*].appl.sendBeacons false
param *.rsu[*].appl.sendData false
param *.rsu[*].appl.sendVoIP false
param *.rsu[*].applType "\"SymRSU11p\""
param *.rsu[0].mobility.x 2160
param *.rsu[0].mobility.y 3100
param *.rsu[0].mobility.z 3
param *.world.use2D false
param *.world.useTorus false

vector 9  SymScenerio.rsu[0].nic.mac1609_4  "Interwały kanałów"  ETV
vector 18  SymScenerio.node[0].veinsmobility  posx  ETV
vector 19  SymScenerio.node[0].veinsmobility  posy  ETV
vector 17  SymScenerio.node[0].nic.mac1609_4  "Interwały kanałów"  ETV
vector 20  SymScenerio.node[0].veinsmobility  speed  ETV
vector 21  SymScenerio.node[0].veinsmobility  acceleration  ETV
vector 22  SymScenerio.node[0].veinsmobility  co2emission  ETV
vector 10  SymScenerio.node[0].appl  "TX Packets"  ETV
vector 11  SymScenerio.node[0].appl  "TX Total"  ETV
vector 12  SymScenerio.node[0].appl  Pakietyzacja  ETV
vector 3  SymScenerio.rsu[0].appl  "RX Packets"  ETV
vector 4  SymScenerio.rsu[0].appl  "RX Packet"  ETV
vector 31  SymScenerio.node[1].veinsmobility  posx  ETV
vector 32  SymScenerio.node[1].veinsmobility  posy  ETV
vector 30  SymScenerio.node[1].nic.mac1609_4  "Interwały kanałów"  ETV
vector 23  SymScenerio.node[1].appl  "TX Packets"  ETV
vector 24  SymScenerio.node[1].appl  "TX Total"  ETV
vector 25  SymScenerio.node[1].appl  Pakietyzacja  ETV
vector 33  SymScenerio.node[1].veinsmobility  speed  ETV
vector 34  SymScenerio.node[1].veinsmobility  acceleration  ETV
vector 35  SymScenerio.node[1].veinsmobility  co2emission  ETV
vector 44  SymScenerio.node[2].veinsmobility  posx  ETV
vector 45  SymScenerio.node[2].veinsmobility  posy  ETV
vector 43  SymScenerio.node[2].nic.mac1609_4  "Interwały kanałów"  ETV
vector 46  SymScenerio.node[2].veinsmobility  speed  ETV
vector 47  SymScenerio.node[2].veinsmobility  acceleration  ETV
vector 48  SymScenerio.node[2].veinsmobility  co2emission  ETV
vector 36  SymScenerio.node[2].appl  "TX Packets"  ETV
vector 37  SymScenerio.node[2].appl  "TX Total"  ETV
vector 38  SymScenerio.node[2].appl  Pakietyzacja  ETV
vector 57  SymScenerio.node[3].veinsmobility  posx  ETV
vector 58  SymScenerio.node[3].veinsmobility  posy  ETV
vector 56  SymScenerio.node[3].nic.mac1609_4  "Interwały kanałów"  ETV
vector 59  SymScenerio.node[3].veinsmobility  speed  ETV
vector 60  SymScenerio.node[3].veinsmobility  acceleration  ETV
vector 61  SymScenerio.node[3].veinsmobility  co2emission  ETV
vector 49  SymScenerio.node[3].appl  "TX Packets"  ETV
vector 50  SymScenerio.node[3].appl  "TX Total"  ETV
vector 51  SymScenerio.node[3].appl  Pakietyzacja  ETV
vector 70  SymScenerio.node[4].veinsmobility  posx  ETV
vector 71  SymScenerio.node[4].veinsmobility  posy  ETV
vector 69  SymScenerio.node[4].nic.mac1609_4  "Interwały kanałów"  ETV
vector 62  SymScenerio.node[4].appl  "TX Packets"  ETV
vector 63  SymScenerio.node[4].appl  "TX Total"  ETV
vector 64  SymScenerio.node[4].appl  Pakietyzacja  ETV
vector 72  SymScenerio.node[4].veinsmobility  speed  ETV
vector 73  SymScenerio.node[4].veinsmobility  acceleration  ETV
vector 74  SymScenerio.node[4].veinsmobility  co2emission  ETV
12	27	0.561827398394	1.002
12	45	0.611827398394	1.002
12	62	0.661827398394	1.002
12	80	0.711827398394	1.002
12	97	0.761827398394	1.002
12	115	0.811827398394	1.002
12	132	0.861827398394	1.002
12	150	0.911827398394	1.002
12	167	0.961827398394	1.002
12	185	1.011827398394	1.002
12	202	1.061827398394	1.002
12	220	1.111827398394	1.002
12	237	1.161827398394	1.002
12	255	1.211827398394	1.002
12	272	1.261827398394	1.002
12	290	1.311827398394	1.002
12	307	1.361827398394	1.002
12	325	1.411827398394	1.002
12	342	1.461827398394	1.002
12	360	1.511827398394	1.002
12	377	1.561827398394	1.002
12	395	1.611827398394	1.002
12	412	1.661827398394	1.002
12	430	1.711827398394	1.002
12	447	1.761827398394	1.002
12	465	1.811827398394	1.002
12	482	1.861827398394	1.002
12	500	1.911827398394	1.002
12	517	1.961827398394	1.002
12	535	2.011827398394	1.002
12	552	2.061827398394	1.002
12	570	2.111827398394	1.002
12	587	2.161827398394	1.002
12	605	2.211827398394	1.002
12	622	2.261827398394	1.002
12	640	2.311827398394	1.002
12	657	2.361827398394	1.002
12	675	2.411827398394	1.002
12	692	2.461827398394	1.002
12	710	2.511827398394	1.002
12	727	2.561827398394	1.002
12	745	2.611827398394	1.002
12	762	2.661827398394	1.002
12	780	2.711827398394	1.002
12	797	2.761827398394	1.002
12	815	2.811827398394	1.002
12	832	2.861827398394	1.002
12	850	2.911827398394	1.002
12	867	2.961827398394	1.002
12	885	3.011827398394	1.002
12	902	3.061827398394	1.002
12	920	3.111827398394	1.002
12	965	3.161827398394	1.002
12	992	3.211827398394	1.002
12	1056	3.261827398394	1.002
12	1083	3.311827398394	1.002
12	1147	3.361827398394	1.002
12	1174	3.411827398394	1.002
12	1238	3.461827398394	1.002
12	1265	3.511827398394	1.002
12	1329	3.561827398394	1.002
12	1356	3.611827398394	1.002
12	1420	3.661827398394	1.002
12	1447	3.711827398394	1.002
12	1511	3.761827398394	1.002
12	1538	3.811827398394	1.002
12	1602	3.861827398394	1.002
12	1629	3.911827398394	1.002
12	1693	3.961827398394	1.002
12	1720	4.011827398394	1.002
12	1784	4.061827398394	1.002
12	1811	4.111827398394	1.002
12	1875	4.161827398394	1.002
12	1902	4.211827398394	1.002
12	1966	4.261827398394	1.002
12	1993	4.311827398394	1.002
12	2057	4.361827398394	1.002
12	2084	4.411827398394	1.002
12	2148	4.461827398394	1.002
12	2175	4.511827398394	1.002
12	2239	4.561827398394	1.002
12	2266	4.611827398394	1.002
12	2330	4.661827398394	1.002
12	2357	4.711827398394	1.002
12	2421	4.761827398394	1.002
12	2448	4.811827398394	1.002
12	2512	4.861827398394	1.002
12	2539	4.911827398394	1.002
12	2603	4.961827398394	1.002
12	2630	5.011827398394	1.002
12	2694	5.061827398394	1.002
12	2721	5.111827398394	1.002
12	2785	5.161827398394	1.002
12	2812	5.211827398394	1.002
12	2876	5.261827398394	1.002
12	2903	5.311827398394	1.002
12	2967	5.361827398394	1.002
12	2994	5.411827398394	1.002
12	3058	5.461827398394	1.002
12	3085	5.511827398394	1.002
12	3149	5.561827398394	1.002
12	3176	5.611827398394	1.002
12	3240	5.661827398394	1.002
12	3267	5.711827398394	1.002
12	3331	5.761827398394	1.002
12	3358	5.811827398394	1.002
12	3422	5.861827398394	1.002
12	3449	5.911827398394	1.002
12	3513	5.961827398394	1.002
12	3540	6.011827398394	1.002
12	3604	6.061827398394	1.002
12	3631	6.111827398394	1.002
12	3714	6.161827398394	1.002
12	3748	6.211827398394	1.002
12	3831	6.261827398394	1.002
12	3865	6.311827398394	1.002
12	3948	6.361827398394	1.002
12	3982	6.411827398394	1.002
12	4065	6.461827398394	1.002
12	4099	6.511827398394	1.002
12	4182	6.561827398394	1.002
12	4216	6.611827398394	1.002
12	4299	6.661827398394	1.002
12	4333	6.711827398394	1.002
12	4416	6.761827398394	1.002
12	4450	6.811827398394	1.002
12	4533	6.861827398394	1.002
12	4594	6.911827398394	1.002
12	4704	6.961827398394	1.002
12	4765	7.011827398394	1.002
12	4865	7.061827398394	1.002
12	4926	7.111827398394	1.002
12	5026	7.161827398394	1.002
12	5087	7.211827398394	1.002
12	5197	7.261827398394	1.002
12	5258	7.311827398394	1.002
12	5368	7.361827398394	1.002
12	5429	7.411827398394	1.002
12	5539	7.461827398394	1.002
12	5600	7.511827398394	1.002
12	5710	7.561827398394	1.002
12	5771	7.611827398394	1.002
12	5881	7.661827398394	1.002
12	5942	7.711827398394	1.002
12	6052	7.761827398394	1.002
12	6113	7.811827398394	1.002
12	6223	7.861827398394	1.002
12	6284	7.911827398394	1.002
12	6394	7.961827398394	1.002
12	6455	8.011827398394	1.002
12	6565	8.061827398394	1.002
12	6626	8.111827398394	1.002
12	6736	8.161827398394	1.002
12	6797	8.211827398394	1.002
12	6907	8.261827398394	1.002
12	6968	8.311827398394	1.002
12	7068	8.361827398394	1.002
12	7129	8.411827398394	1.002
12	7239	8.461827398394	1.002
12	7300	8.511827398394	1.002
12	7410	8.561827398394	1.002
12	7471	8.611827398394	1.002
12	7571	8.661827398394	1.002
12	7632	8.711827398394	1.002
12	7742	8.761827398394	1.002
12	7803	8.811827398394	1.002
12	7913	8.861827398394	1.002
12	7974	8.911827398394	1.002
12	8084	8.961827398394	1.002
12	8145	9.011827398394	1.002
12	8255	9.061827398394	1.002
12	8316	9.111827398394	1.002
12	8438	9.161827398394	1.002
12	8512	9.211827398394	1.002
12	8647	9.261827398394	1.002
12	8721	9.311827398394	1.002
12	8856	9.361827398394	1.002
12	8930	9.411827398394	1.002
12	9052	9.461827398394	1.002
12	9126	9.511827398394	1.002
12	9261	9.561827398394	1.002
12	9335	9.611827398394	1.002
12	9457	9.661827398394	1.002
12	9531	9.711827398394	1.002
12	9666	9.761827398394	1.002
12	9773	9.811827398394	1.002
12	9941	9.861827398394	1.002
12	10048	9.911827398394	1.002
12	10203	9.961827398394	1.002
12	10310	10.011827398394	1.002
12	10478	10.061827398394	1.002
12	10585	10.111827398394	1.002
12	10753	10.161827398394	1.002
12	10860	10.211827398394	1.002
12	11028	10.261827398394	1.002
12	11135	10.311827398394	1.002
12	11290	10.361827398394	1.002
12	11397	10.411827398394	1.002
12	11552	10.461827398394	1.002
12	11659	10.511827398394	1.002
12	11814	10.561827398394	1.002
12	11921	10.611827398394	1.002
12	12076	10.661827398394	1.002
12	12183	10.711827398394	1.002
12	12351	10.761827398394	1.002
12	12458	10.811827398394	1.002
12	12613	10.861827398394	1.002
12	12720	10.911827398394	1.002
12	12875	10.961827398394	1.002
12	12982	11.011827398394	1.002
12	13150	11.061827398394	1.002
12	13257	11.111827398394	1.002
12	13412	11.161827398394	1.002
12	13519	11.211827398394	1.002
12	13687	11.261827398394	1.002
12	13794	11.311827398394	1.002
12	13962	11.361827398394	1.002
12	14069	11.411827398394	1.002
12	14237	11.461827398394	1.002
12	14344	11.511827398394	1.002
12	14499	11.561827398394	1.002
12	14606	11.611827398394	1.002
12	14761	11.661827398394	1.002
12	14868	11.711827398394	1.002
12	15023	11.761827398394	1.002
12	15130	11.811827398394	1.002
12	15285	11.861827398394	1.002
12	15392	11.911827398394	1.002
12	15560	11.961827398394	1.002
12	15667	12.011827398394	1.002
12	15835	12.061827398394	1.002
12	15942	12.111827398394	1.002
12	16154	12.161827398394	1.002
12	16282	12.211827398394	1.002
12	16541	12.261827398394	1.002
12	16669	12.311827398394	1.002
12	16928	12.361827398394	1.002
12	17056	12.411827398394	1.002
12	17305	12.461827398394	1.002
12	17433	12.511827398394	1.002
12	17692	12.561827398394	1.002
12	17820	12.611827398394	1.002
12	18080	12.661827398394	1.002
12	18208	12.711827398394	1.002
12	18453	12.761827398394	1.002
12	18581	12.811827398394	1.002
12	18825	12.861827398394	1.002
12	18953	12.911827398394	1.002
12	19201	12.961827398394	1.002
12	19329	13.011827398394	1.002
12	19589	13.061827398394	1.002
12	19717	13.111827398394	1.002
12	19960	13.161827398394	1.002
12	20088	13.211827398394	1.002
12	20332	13.261827398394	1.002
12	20460	13.311827398394	1.002
12	20719	13.361827398394	1.002
12	20847	13.411827398394	1.002
12	21079	13.461827398394	1.002
12	21207	13.511827398394	1.002
12	21455	13.561827398394	1.002
12	21583	13.611827398394	1.002
12	21827	13.661827398394	1.002
12	21955	13.711827398394	1.002
12	22198	13.761827398394	1.002
12	22326	13.811827398394	1.002
12	22585	13.861827398394	1.002
12	22713	13.911827398394	1.002
12	22972	13.961827398394	1.002
12	23100	14.011827398394	1.002
12	23359	14.061827398394	1.002
12	23487	14.111827398394	1.002
12	23746	14.161827398394	1.002
12	23874	14.211827398394	1.002
12	24133	14.261827398394	1.002
12	24261	14.311827398394	1.002
12	24509	14.361827398394	1.002
12	24637	14.411827398394	1.002
12	24897	14.461827398394	1.002
12	25025	14.511827398394	1.002
12	25284	14.561827398394	1.002
12	25412	14.611827398394	1.002
12	25655	14.661827398394	1.002
12	25783	14.711827398394	1.002
12	26031	14.761827398394	1.002
12	26159	14.811827398394	1.002
12	26402	14.861827398394	1.002
12	26530	14.911827398394	1.002
12	26773	14.961827398394	1.002
12	26901	15.011827398394	1.002
12	27144	15.061827398394	1.002
12	27272	15.111827398394	1.002
12	27531	15.161827398394	1.002
12	27659	15.211827398394	1.002
12	27918	15.261827398394	1.002
12	28046	15.311827398394	1.002
12	28305	15.361827398394	1.002
12	28433	15.411827398394	1.002
12	28670	15.461827398394	1.002
12	28798	15.511827398394	1.002
12	29057	15.561827398394	1.002
12	29185	15.611827398394	1.002
12	29444	15.661827398394	1.002
12	29572	15.711827398394	1.002
12	29831	15.761827398394	1.002
12	29959	15.811827398394	1.002
12	30218	15.861827398394	1.002
12	30346	15.911827398394	1.002
12	30589	15.961827398394	1.002
12	30717	16.011827398394	1.002
12	30965	16.061827398394	1.002
12	31093	16.111827398394	1.002
12	31341	16.161827398394	1.002
12	31469	16.211827398394	1.002
12	31728	16.261827398394	1.002
12	31856	16.311827398394	1.002
12	32099	16.361827398394	1.002
12	32227	16.411827398394	1.002
12	32470	16.461827398394	1.002
12	32598	16.511827398394	1.002
12	32857	16.561827398394	1.002
12	32985	16.611827398394	1.002
12	33244	16.661827398394	1.002
12	33372	16.711827398394	1.002
12	33604	16.761827398394	1.002
12	33732	16.811827398394	1.002
12	33980	16.861827398394	1.002
12	34108	16.911827398394	1.002
12	34351	16.961827398394	1.002
12	34479	17.011827398394	1.002
12	34722	17.061827398394	1.002
12	34850	17.111827398394	1.002
12	35109	17.161827398394	1.002
12	35237	17.211827398394	1.002
12	35485	17.261827398394	1.002
12	35613	17.311827398394	1.002
12	35856	17.361827398394	1.002
12	35984	17.411827398394	1.002
12	36232	17.461827398394	1.002
12	36360	17.511827398394	1.002
12	36619	17.561827398394	1.002
12	36747	17.611827398394	1.002
12	37006	17.661827398394	1.002
12	37134	17.711827398394	1.002
12	37377	17.761827398394	1.002
12	37505	17.811827398394	1.002
12	37748	17.861827398394	1.002
12	37876	17.911827398394	1.002
12	38135	17.961827398394	1.002
12	38263	18.011827398394	1.002
12	38511	18.061827398394	1.002
12	38639	18.111827398394	1.002
12	38882	18.161827398394	1.002
12	39010	18.211827398394	1.002
12	39253	18.261827398394	1.002
12	39381	18.311827398394	1.002
12	39640	18.361827398394	1.002
12	39768	18.411827398394	1.002
12	40016	18.461827398394	1.002
12	40144	18.511827398394	1.002
12	40403	18.561827398394	1.002
12	40531	18.611827398394	1.002
12	40790	18.661827398394	1.002
12	40918	18.711827398394	1.002
12	41177	18.761827398394	1.002
12	41305	18.811827398394	1.002
12	41553	18.861827398394	1.002
12	41681	18.911827398394	1.002
12	41924	18.961827398394	1.002
12	42052	19.011827398394	1.002
12	42311	19.061827398394	1.002
12	42439	19.111827398394	1.002
12	42687	19.161827398394	1.002
12	42815	19.211827398394	1.002
12	43058	19.261827398394	1.002
12	43186	19.311827398394	1.002
12	43445	19.361827398394	1.002
12	43573	19.411827398394	1.002
12	43832	19.461827398394	1.002
12	43960	19.511827398394	1.002
12	44208	19.561827398394	1.002
12	44336	19.611827398394	1.002
12	44595	19.661827398394	1.002
12	44723	19.711827398394	1.002
12	44982	19.761827398394	1.002
12	45110	19.811827398394	1.002
12	45369	19.861827398394	1.002
12	45497	19.911827398394	1.002
12	45745	19.961827398394	1.002
12	45873	20.011827398394	1.002
12	46116	20.061827398394	1.002
12	46244	20.111827398394	1.002
12	46503	20.161827398394	1.002
12	46631	20.211827398394	1.002
12	46874	20.261827398394	1.002
12	47002	20.311827398394	1.002
12	47261	20.361827398394	1.002
12	47389	20.411827398394	1.002
12	47648	20.461827398394	1.002
12	47776	20.511827398394	1.002
12	48051	20.561827398394	1.002
12	48179	20.611827398394	1.002
12	48427	20.661827398394	1.002
12	48555	20.711827398394	1.002
12	48798	20.761827398394	1.002
12	48926	20.811827398394	1.002
12	49174	20.861827398394	1.002
12	49302	20.911827398394	1.002
12	49550	20.961827398394	1.002
12	49678	21.011827398394	1.002
12	49921	21.061827398394	1.002
12	50049	21.111827398394	1.002
12	50324	21.161827398394	1.002
12	50452	21.211827398394	1.002
12	50700	21.261827398394	1.002
12	50828	21.311827398394	1.002
12	51087	21.361827398394	1.002
12	51215	21.411827398394	1.002
12	51463	21.461827398394	1.002
12	51591	21.511827398394	1.002
12	51850	21.561827398394	1.002
12	51978	21.611827398394	1.002
12	52253	21.661827398394	1.002
12	52381	21.711827398394	1.002
12	52624	21.761827398394	1.002
12	52752	21.811827398394	1.002
12	52995	21.861827398394	1.002
12	53123	21.911827398394	1.002
12	53371	21.961827398394	1.002
12	53499	22.011827398394	1.002
12	53731	22.061827398394	1.002
12	53859	22.111827398394	1.002
12	54118	22.161827398394	1.002
12	54246	22.211827398394	1.002
12	54505	22.261827398394	1.002
12	54633	22.311827398394	1.002
12	54881	22.361827398394	1.002
12	55009	22.411827398394	1.002
12	55268	22.461827398394	1.002
12	55396	22.511827398394	1.002
12	55639	22.561827398394	1.002
12	55767	22.611827398394	1.002
12	56026	22.661827398394	1.002
12	56154	22.711827398394	1.002
12	56413	22.761827398394	1.002
12	56541	22.811827398394	1.002
12	56784	22.861827398394	1.002
12	56912	22.911827398394	1.002
12	57171	22.961827398394	1.002
12	57299	23.011827398394	1.002
12	57558	23.061827398394	1.002
12	57686	23.111827398394	1.002
12	57945	23.161827398394	1.002
12	58073	23.211827398394	1.002
12	58332	23.261827398394	1.002
12	58460	23.311827398394	1.002
12	58719	23.361827398394	1.002
12	58847	23.411827398394	1.002
12	59106	23.461827398394	1.002
12	59234	23.511827398394	1.002
12	59482	23.561827398394	1.002
12	59610	23.611827398394	1.002
12	59853	23.661827398394	1.002
12	59981	23.711827398394	1.002
12	60240	23.761827398394	1.002
12	60368	23.811827398394	1.002
12	60611	23.861827398394	1.002
12	60739	23.911827398394	1.002
12	60998	23.961827398394	1.002
12	61126	24.011827398394	1.002
12	61385	24.061827398394	1.002
12	61513	24.111827398394	1.002
12	61772	24.161827398394	1.002
12	61900	24.211827398394	1.002
12	62159	24.261827398394	1.002
12	62287	24.311827398394	1.002
12	62530	24.361827398394	1.002
12	62658	24.411827398394	1.002
12	62917	24.461827398394	1.002
12	63045	24.511827398394	1.002
12	63304	24.561827398394	1.002
12	63432	24.611827398394	1.002
12	63691	24.661827398394	1.002
12	63819	24.711827398394	1.002
12	64067	24.761827398394	1.002
12	64195	24.811827398394	1.002
12	64438	24.861827398394	1.002
12	64566	24.911827398394	1.002
12	64803	24.961827398394	1.002
12	64931	25.011827398394	1.002
12	65190	25.061827398394	1.002
12	65318	25.111827398394	1.002
12	65577	25.161827398394	1.002
12	65705	25.211827398394	1.002
12	65948	25.261827398394	1.002
12	66076	25.311827398394	1.002
12	66335	25.361827398394	1.002
12	66463	25.411827398394	1.002
12	66722	25.461827398394	1.002
12	66850	25.511827398394	1.002
12	67098	25.561827398394	1.002
12	67226	25.611827398394	1.002
12	67474	25.661827398394	1.002
12	67602	25.711827398394	1.002
12	67861	25.761827398394	1.002
12	67989	25.811827398394	1.002
12	68248	25.861827398394	1.002
12	68376	25.911827398394	1.002
12	68651	25.961827398394	1.002
12	68779	26.011827398394	1.002
12	69054	26.061827398394	1.002
12	69182	26.111827398394	1.002
12	69425	26.161827398394	1.002
12	69553	26.211827398394	1.002
12	69801	26.261827398394	1.002
12	69929	26.311827398394	1.002
12	70172	26.361827398394	1.002
12	70300	26.411827398394	1.002
12	70548	26.461827398394	1.002
12	70676	26.511827398394	1.002
12	70924	26.561827398394	1.002
12	71052	26.611827398394	1.002
12	71295	26.661827398394	1.002
12	71423	26.711827398394	1.002
12	71666	26.761827398394	1.002
12	71794	26.811827398394	1.002
12	72031	26.861827398394	1.002
12	72159	26.911827398394	1.002
12	72407	26.961827398394	1.002
12	72535	27.011827398394	1.002
12	72783	27.061827398394	1.002
12	72911	27.111827398394	1.002
12	73159	27.161827398394	1.002
12	73287	27.211827398394	1.002
12	73546	27.261827398394	1.002
12	73674	27.311827398394	1.002
12	73933	27.361827398394	1.002
12	74061	27.411827398394	1.002
12	74320	27.461827398394	1.002
12	74448	27.511827398394	1.002
12	74691	27.561827398394	1.002
12	74819	27.611827398394	1.002
12	75078	27.661827398394	1.002
12	75206	27.711827398394	1.002
12	75465	27.761827398394	1.002
12	75593	27.811827398394	1.002
12	75825	27.861827398394	1.002
12	75953	27.911827398394	1.002
12	76201	27.961827398394	1.002
12	76329	28.011827398394	1.002
12	76577	28.061827398394	1.002
12	76705	28.111827398394	1.002
12	76948	28.161827398394	1.002
12	77076	28.211827398394	1.002
12	77335	28.261827398394	1.002
12	77463	28.311827398394	1.002
12	77722	28.361827398394	1.002
12	77850	28.411827398394	1.002
12	78093	28.461827398394	1.002
12	78221	28.511827398394	1.002
12	78480	28.561827398394	1.002
12	78608	28.611827398394	1.002
12	78867	28.661827398394	1.002
12	78995	28.711827398394	1.002
12	79243	28.761827398394	1.002
12	79371	28.811827398394	1.002
12	79614	28.861827398394	1.002
12	79742	28.911827398394	1.002
12	79990	28.961827398394	1.002
12	80118	29.011827398394	1.002
12	80377	29.061827398394	1.002
12	80505	29.111827398394	1.002
12	80764	29.161827398394	1.002
12	80892	29.211827398394	1.002
12	81151	29.261827398394	1.002
12	81279	29.311827398394	1.002
12	81527	29.361827398394	1.002
12	81655	29.411827398394	1.002
12	81914	29.461827398394	1.002
12	82042	29.511827398394	1.002
12	82285	29.561827398394	1.002
12	82413	29.611827398394	1.002
12	82672	29.661827398394	1.002
12	82800	29.711827398394	1.002
12	83059	29.761827398394	1.002
12	83187	29.811827398394	1.002
12	83446	29.861827398394	1.002
12	83574	29.911827398394	1.002
12	83833	29.961827398394	1.002
12	83961	30.011827398394	1.002
12	84204	30.061827398394	1.002
12	84332	30.111827398394	1.002
12	84575	30.161827398394	1.002
12	84703	30.211827398394	1.002
12	84962	30.261827398394	1.002
12	85090	30.311827398394	1.002
12	85349	30.361827398394	1.002
12	85477	30.411827398394	1.002
12	85752	30.461827398394	1.002
12	85880	30.511827398394	1.002
12	86139	30.561827398394	1.002
12	86267	30.611827398394	1.002
12	86510	30.661827398394	1.002
12	86638	30.711827398394	1.002
12	86897	30.761827398394	1.002
12	87025	30.811827398394	1.002
12	87273	30.861827398394	1.002
12	87401	30.911827398394	1.002
12	87660	30.961827398394	1.002
12	87788	31.011827398394	1.002
12	88047	31.061827398394	1.002
12	88175	31.111827398394	1.002
12	88434	31.161827398394	1.002
12	88562	31.211827398394	1.002
12	88810	31.261827398394	1.002
12	88938	31.311827398394	1.002
12	89181	31.361827398394	1.002
12	89309	31.411827398394	1.002
12	89568	31.461827398394	1.002
12	89696	31.511827398394	1.002
12	89939	31.561827398394	1.002
12	90067	31.611827398394	1.002
12	90326	31.661827398394	1.002
12	90454	31.711827398394	1.002
12	90702	31.761827398394	1.002
12	90830	31.811827398394	1.002
12	91089	31.861827398394	1.002
12	91217	31.911827398394	1.002
12	91460	31.961827398394	1.002
12	91588	32.011827398394	1.002
12	91847	32.061827398394	1.002
12	91975	32.111827398394	1.002
12	92223	32.161827398394	1.002
12	92351	32.211827398394	1.002
12	92610	32.261827398394	1.002
12	92738	32.311827398394	1.002
12	92986	32.361827398394	1.002
12	93114	32.411827398394	1.002
12	93373	32.461827398394	1.002
12	93501	32.511827398394	1.002
12	93760	32.561827398394	1.002
12	93888	32.611827398394	1.002
12	94136	32.661827398394	1.002
12	94264	32.711827398394	1.002
12	94539	32.761827398394	1.002
12	94667	32.811827398394	1.002
12	94926	32.861827398394	1.002
12	95054	32.911827398394	1.002
12	95286	32.961827398394	1.002
12	95414	33.011827398394	1.002
12	95673	33.061827398394	1.002
12	95801	33.111827398394	1.002
12	96060	33.161827398394	1.002
12	96188	33.211827398394	1.002
12	96436	33.261827398394	1.002
12	96564	33.311827398394	1.002
12	96807	33.361827398394	1.002
12	96935	33.411827398394	1.002
12	97178	33.461827398394	1.002
12	97306	33.511827398394	1.002
12	97549	33.561827398394	1.002
12	97677	33.611827398394	1.002
12	97925	33.661827398394	1.002
12	98053	33.711827398394	1.002
12	98328	33.761827398394	1.002
12	98456	33.811827398394	1.002
12	98715	33.861827398394	1.002
12	98843	33.911827398394	1.002
12	99102	33.961827398394	1.002
12	99230	34.011827398394	1.002
12	99489	34.061827398394	1.002
12	99617	34.111827398394	1.002
12	99876	34.161827398394	1.002
12	100004	34.211827398394	1.002
12	100263	34.261827398394	1.002
12	100391	34.311827398394	1.002
12	100634	34.361827398394	1.002
12	100762	34.411827398394	1.002
12	101010	34.461827398394	1.002
12	101138	34.511827398394	1.002
12	101386	34.561827398394	1.002
12	101514	34.611827398394	1.002
12	101773	34.661827398394	1.002
12	101901	34.711827398394	1.002
12	102160	34.761827398394	1.002
12	102288	34.811827398394	1.002
12	102547	34.861827398394	1.002
12	102675	34.911827398394	1.002
12	102934	34.961827398394	1.002
12	103062	35.011827398394	1.002
12	103337	35.061827398394	1.002
12	103465	35.111827398394	1.002
12	103713	35.161827398394	1.002
12	103841	35.211827398394	1.002
12	104089	35.261827398394	1.002
12	104217	35.311827398394	1.002
12	104476	35.361827398394	1.002
12	104604	35.411827398394	1.002
12	104852	35.461827398394	1.002
12	104980	35.511827398394	1.002
12	105223	35.561827398394	1.002
12	105351	35.611827398394	1.002
12	105610	35.661827398394	1.002
12	105738	35.711827398394	1.002
12	105986	35.761827398394	1.002
12	106114	35.811827398394	1.002
12	106357	35.861827398394	1.002
12	106485	35.911827398394	1.002
12	106744	35.961827398394	1.002
12	106872	36.011827398394	1.002
12	107115	36.061827398394	1.002
12	107243	36.111827398394	1.002
12	107502	36.161827398394	1.002
12	107630	36.211827398394	1.002
12	107889	36.261827398394	1.002
12	108017	36.311827398394	1.002
12	108276	36.361827398394	1.002
12	108404	36.411827398394	1.002
12	108647	36.461827398394	1.002
12	108775	36.511827398394	1.002
12	109050	36.561827398394	1.002
12	109178	36.611827398394	1.002
12	109437	36.661827398394	1.002
12	109565	36.711827398394	1.002
12	109808	36.761827398394	1.002
12	109936	36.811827398394	1.002
12	110184	36.861827398394	1.002
12	110312	36.911827398394	1.002
12	110571	36.961827398394	1.002
12	110699	37.011827398394	1.002
12	110958	37.061827398394	1.002
12	111086	37.111827398394	1.002
12	111329	37.161827398394	1.002
12	111457	37.211827398394	1.002
12	111716	37.261827398394	1.002
12	111844	37.311827398394	1.002
12	112103	37.361827398394	1.002
12	112231	37.411827398394	1.002
12	112490	37.461827398394	1.002
12	112618	37.511827398394	1.002
12	112861	37.561827398394	1.002
12	112989	37.611827398394	1.002
12	113232	37.661827398394	1.002
12	113360	37.711827398394	1.002
12	113603	37.761827398394	1.002
12	113731	37.811827398394	1.002
12	113979	37.861827398394	1.002
12	114107	37.911827398394	1.002
12	114366	37.961827398394	1.002
12	114494	38.011827398394	1.002
12	114726	38.061827398394	1.002
12	114854	38.111827398394	1.002
12	115102	38.161827398394	1.002
12	115230	38.211827398394	1.002
12	115489	38.261827398394	1.002
12	115617	38.311827398394	1.002
12	115865	38.361827398394	1.002
12	115993	38.411827398394	1.002
12	116241	38.461827398394	1.002
12	116369	38.511827398394	1.002
12	116617	38.561827398394	1.002
12	116745	38.611827398394	1.002
12	117004	38.661827398394	1.002
12	117132	38.711827398394	1.002
12	117391	38.761827398394	1.002
12	117519	38.811827398394	1.002
12	117778	38.861827398394	1.002
12	117906	38.911827398394	1.002
12	118154	38.961827398394	1.002
12	118282	39.011827398394	1.002
12	118525	39.061827398394	1.002
12	118653	39.111827398394	1.002
12	118912	39.161827398394	1.002
12	119040	39.211827398394	1.002
12	119288	39.261827398394	1.002
12	119416	39.311827398394	1.002
12	119675	39.361827398394	1.002
12	119803	39.411827398394	1.002
12	120051	39.461827398394	1.002
12	120179	39.511827398394	1.002
12	120427	39.561827398394	1.002
12	120555	39.611827398394	1.002
12	120798	39.661827398394	1.002
12	120926	39.711827398394	1.002
12	121169	39.761827398394	1.002
12	121297	39.811827398394	1.002
12	121540	39.861827398394	1.002
12	121668	39.911827398394	1.002
12	121927	39.961827398394	1.002
12	122055	40.011827398394	1.002
12	122314	40.061827398394	1.002
12	122442	40.111827398394	1.002
12	122685	40.161827398394	1.002
12	122813	40.211827398394	1.002
12	123072	40.261827398394	1.002
12	123200	40.311827398394	1.002
12	123443	40.361827398394	1.002
12	123571	40.411827398394	1.002
12	123819	40.461827398394	1.002
12	123947	40.511827398394	1.002
12	124206	40.561827398394	1.002
12	124334	40.611827398394	1.002
12	124577	40.661827398394	1.002
12	124705	40.711827398394	1.002
12	124953	40.761827398394	1.002
12	125081	40.811827398394	1.002
12	125340	40.861827398394	1.002
12	125468	40.911827398394	1.002
12	125727	40.961827398394	1.002
12	125855	41.011827398394	1.002
12	126114	41.061827398394	1.002
12	126242	41.111827398394	1.002
12	126485	41.161827398394	1.002
12	126613	41.211827398394	1.002
12	126872	41.261827398394	1.002
12	127000	41.311827398394	1.002
12	127259	41.361827398394	1.002
12	127387	41.411827398394	1.002
12	127630	41.461827398394	1.002
12	127758	41.511827398394	1.002
12	128001	41.561827398394	1.002
12	128129	41.611827398394	1.002
12	128372	41.661827398394	1.002
12	128500	41.711827398394	1.002
12	128748	41.761827398394	1.002
12	128876	41.811827398394	1.002
12	129135	41.861827398394	1.002
12	129263	41.911827398394	1.002
12	129522	41.961827398394	1.002
12	129650	42.011827398394	1.002
12	129909	42.061827398394	1.002
12	130037	42.111827398394	1.002
12	130280	42.161827398394	1.002
12	130408	42.211827398394	1.002
12	130667	42.261827398394	1.002
12	130795	42.311827398394	1.002
12	131054	42.361827398394	1.002
12	131182	42.411827398394	1.002
12	131425	42.461827398394	1.002
12	131553	42.511827398394	1.002
12	131796	42.561827398394	1.002
12	131924	42.611827398394	1.002
12	132172	42.661827398394	1.002
12	132300	42.711827398394	1.002
12	132559	42.761827398394	1.002
12	132687	42.811827398394	1.002
12	132935	42.861827398394	1.002
12	133063	42.911827398394	1.002
12	133322	42.961827398394	1.002
12	133450	43.011827398394	1.002
12	133725	43.061827398394	1.002
12	133853	43.111827398394	1.002
12	134112	43.161827398394	1.002
12	134240	43.211827398394	1.002
12	134472	43.261827398394	1.002
12	134600	43.311827398394	1.002
12	134848	43.361827398394	1.002
12	134976	43.411827398394	1.002
12	135224	43.461827398394	1.002
12	135352	43.511827398394	1.002
12	135595	43.561827398394	1.002
12	135723	43.611827398394	1.002
12	135971	43.661827398394	1.002
12	136099	43.711827398394	1.002
12	136358	43.761827398394	1.002
12	136486	43.811827398394	1.002
12	136729	43.861827398394	1.002
12	136857	43.911827398394	1.002
12	137116	43.961827398394	1.002
12	137244	44.011827398394	1.002
12	137503	44.061827398394	1.002
12	137631	44.111827398394	1.002
12	137879	44.161827398394	1.002
12	138007	44.211827398394	1.002
12	138255	44.261827398394	1.002
12	138383	44.311827398394	1.002
12	138626	44.361827398394	1.002
12	138754	44.411827398394	1.002
12	138997	44.461827398394	1.002
12	139125	44.511827398394	1.002
12	139384	44.561827398394	1.002
12	139512	44.611827398394	1.002
12	139744	44.661827398394	1.002
12	139872	44.711827398394	1.002
12	140115	44.761827398394	1.002
12	140243	44.811827398394	1.002
12	140502	44.861827398394	1.002
12	140630	44.911827398394	1.002
12	140889	44.961827398394	1.002
12	141017	45.011827398394	1.002
12	141276	45.061827398394	1.002
12	141404	45.111827398394	1.002
12	141652	45.161827398394	1.002
12	141780	45.211827398394	1.002
12	142055	45.261827398394	1.002
12	142183	45.311827398394	1.002
12	142431	45.361827398394	1.002
12	142559	45.411827398394	1.002
12	142802	45.461827398394	1.002
12	142930	45.511827398394	1.002
12	143178	45.561827398394	1.002
12	143306	45.611827398394	1.002
12	143565	45.661827398394	1.002
12	143693	45.711827398394	1.002
12	143952	45.761827398394	1.002
12	144080	45.811827398394	1.002
12	144339	45.861827398394	1.002
12	144467	45.911827398394	1.002
12	144726	45.961827398394	1.002
12	144854	46.011827398394	1.002
12	145102	46.061827398394	1.002
12	145230	46.111827398394	1.002
12	145467	46.161827398394	1.002
12	145595	46.211827398394	1.002
12	145870	46.261827398394	1.002
12	145998	46.311827398394	1.002
12	146246	46.361827398394	1.002
12	146374	46.411827398394	1.002
12	146622	46.461827398394	1.002
12	146750	46.511827398394	1.002
12	147009	46.561827398394	1.002
12	147137	46.611827398394	1.002
12	147396	46.661827398394	1.002
12	147524	46.711827398394	1.002
12	147783	46.761827398394	1.002
12	147911	46.811827398394	1.002
12	148170	46.861827398394	1.002
12	148298	46.911827398394	1.002
12	148546	46.961827398394	1.002
12	148674	47.011827398394	1.002
12	148933	47.061827398394	1.002
12	149061	47.111827398394	1.002
12	149320	47.161827398394	1.002
12	149448	47.211827398394	1.002
12	149696	47.261827398394	1.002
12	149824	47.311827398394	1.002
12	150067	47.361827398394	1.002
12	150195	47.411827398394	1.002
12	150438	47.461827398394	1.002
12	150566	47.511827398394	1.002
12	150825	47.561827398394	1.002
12	150953	47.611827398394	1.002
12	151196	47.661827398394	1.002
12	151324	47.711827398394	1.002
12	151567	47.761827398394	1.002
12	151695	47.811827398394	1.002
12	151943	47.861827398394	1.002
12	152071	47.911827398394	1.002
12	152330	47.961827398394	1.002
12	152458	48.011827398394	1.002
12	152717	48.061827398394	1.002
12	152845	48.111827398394	1.002
12	153088	48.161827398394	1.002
12	153216	48.211827398394	1.002
12	153464	48.261827398394	1.002
12	153592	48.311827398394	1.002
12	153851	48.361827398394	1.002
12	153979	48.411827398394	1.002
12	154238	48.461827398394	1.002
12	154366	48.511827398394	1.002
12	154625	48.561827398394	1.002
12	154753	48.611827398394	1.002
12	155012	48.661827398394	1.002
12	155140	48.711827398394	1.002
12	155399	48.761827398394	1.002
12	155527	48.811827398394	1.002
12	155786	48.861827398394	1.002
12	155914	48.911827398394	1.002
12	156162	48.961827398394	1.002
12	156290	49.011827398394	1.002
12	156538	49.061827398394	1.002
12	156666	49.111827398394	1.002
12	156925	49.161827398394	1.002
12	157053	49.211827398394	1.002
12	157312	49.261827398394	1.002
12	157440	49.311827398394	1.002
12	157699	49.361827398394	1.002
12	157827	49.411827398394	1.002
12	158086	49.461827398394	1.002
12	158214	49.511827398394	1.002
12	158473	49.561827398394	1.002
12	158601	49.611827398394	1.002
12	158860	49.661827398394	1.002
12	158988	49.711827398394	1.002
12	159231	49.761827398394	1.002
12	159359	49.811827398394	1.002
12	159618	49.861827398394	1.002
12	159746	49.911827398394	1.002
12	159989	49.961827398394	1.002
12	160117	50.011827398394	1.002
12	160376	50.061827398394	1.002
12	160504	50.111827398394	1.002
12	160763	50.161827398394	1.002
12	160891	50.211827398394	1.002
12	161134	50.261827398394	1.002
12	161262	50.311827398394	1.002
12	161505	50.361827398394	1.002
12	161633	50.411827398394	1.002
12	161876	50.461827398394	1.002
12	162004	50.511827398394	1.002
12	162247	50.561827398394	1.002
12	162375	50.611827398394	1.002
12	162623	50.661827398394	1.002
12	162751	50.711827398394	1.002
12	162999	50.761827398394	1.002
12	163127	50.811827398394	1.002
12	163375	50.861827398394	1.002
12	163503	50.911827398394	1.002
12	163751	50.961827398394	1.002
12	163879	51.011827398394	1.002
12	164122	51.061827398394	1.002
12	164250	51.111827398394	1.002
12	164525	51.161827398394	1.002
12	164653	51.211827398394	1.002
12	164901	51.261827398394	1.002
12	165029	51.311827398394	1.002
12	165288	51.361827398394	1.002
12	165416	51.411827398394	1.002
12	165659	51.461827398394	1.002
12	165787	51.511827398394	1.002
12	166046	51.561827398394	1.002
12	166174	51.611827398394	1.002
12	166422	51.661827398394	1.002
12	166550	51.711827398394	1.002
12	166809	51.761827398394	1.002
12	166937	51.811827398394	1.002
12	167185	51.861827398394	1.002
12	167313	51.911827398394	1.002
12	167572	51.961827398394	1.002
12	167700	52.011827398394	1.002
12	167959	52.061827398394	1.002
12	168087	52.111827398394	1.002
12	168346	52.161827398394	1.002
12	168474	52.211827398394	1.002
12	168733	52.261827398394	1.002
12	168861	52.311827398394	1.002
12	169120	52.361827398394	1.002
12	169248	52.411827398394	1.002
12	169507	52.461827398394	1.002
12	169635	52.511827398394	1.002
12	169894	52.561827398394	1.002
12	170022	52.611827398394	1.002
12	170281	52.661827398394	1.002
12	170409	52.711827398394	1.002
12	170657	52.761827398394	1.002
12	170785	52.811827398394	1.002
12	171033	52.861827398394	1.002
12	171161	52.911827398394	1.002
12	171393	52.961827398394	1.002
12	171521	53.011827398394	1.002
12	171764	53.061827398394	1.002
12	171892	53.111827398394	1.002
12	172135	53.161827398394	1.002
12	172263	53.211827398394	1.002
12	172511	53.261827398394	1.002
12	172639	53.311827398394	1.002
12	172882	53.361827398394	1.002
12	173010	53.411827398394	1.002
12	173269	53.461827398394	1.002
12	173397	53.511827398394	1.002
12	173645	53.561827398394	1.002
12	173773	53.611827398394	1.002
12	174032	53.661827398394	1.002
12	174160	53.711827398394	1.002
12	174419	53.761827398394	1.002
12	174547	53.811827398394	1.002
12	174806	53.861827398394	1.002
12	174934	53.911827398394	1.002
12	175193	53.961827398394	1.002
12	175321	54.011827398394	1.002
12	175580	54.061827398394	1.002
12	175708	54.111827398394	1.002
12	175951	54.161827398394	1.002
12	176079	54.211827398394	1.002
12	176338	54.261827398394	1.002
12	176466	54.311827398394	1.002
12	176725	54.361827398394	1.002
12	176853	54.411827398394	1.002
12	177101	54.461827398394	1.002
12	177229	54.511827398394	1.002
12	177488	54.561827398394	1.002
12	177616	54.611827398394	1.002
12	177875	54.661827398394	1.002
12	178003	54.711827398394	1.002
12	178262	54.761827398394	1.002
12	178390	54.811827398394	1.002
12	178638	54.861827398394	1.002
12	178766	54.911827398394	1.002
12	179025	54.961827398394	1.002
12	179153	55.011827398394	1.002
12	179428	55.061827398394	1.002
12	179556	55.111827398394	1.002
12	179815	55.161827398394	1.002
12	179943	55.211827398394	1.002
12	180186	55.261827398394	1.002
12	180314	55.311827398394	1.002
12	180557	55.361827398394	1.002
12	180685	55.411827398394	1.002
12	180944	55.461827398394	1.002
12	181072	55.511827398394	1.002
12	181331	55.561827398394	1.002
12	181459	55.611827398394	1.002
12	181718	55.661827398394	1.002
12	181846	55.711827398394	1.002
12	182094	55.761827398394	1.002
12	182222	55.811827398394	1.002
12	182470	55.861827398394	1.002
12	182598	55.911827398394	1.002
12	182857	55.961827398394	1.002
12	182985	56.011827398394	1.002
12	183228	56.061827398394	1.002
12	183356	56.111827398394	1.002
12	183599	56.161827398394	1.002
12	183727	56.211827398394	1.002
12	183975	56.261827398394	1.002
12	184103	56.311827398394	1.002
12	184346	56.361827398394	1.002
12	184474	56.411827398394	1.002
12	184749	56.461827398394	1.002
12	184877	56.511827398394	1.002
12	185136	56.561827398394	1.002
12	185264	56.611827398394	1.002
12	185501	56.661827398394	1.002
12	185629	56.711827398394	1.002
12	185888	56.761827398394	1.002
12	186016	56.811827398394	1.002
12	186248	56.861827398394	1.002
12	186376	56.911827398394	1.002
12	186619	56.961827398394	1.002
12	186747	57.011827398394	1.002
12	187006	57.061827398394	1.002
12	187134	57.111827398394	1.002
12	187382	57.161827398394	1.002
12	187510	57.211827398394	1.002
12	187758	57.261827398394	1.002
12	187886	57.311827398394	1.002
12	188145	57.361827398394	1.002
12	188273	57.411827398394	1.002
12	188532	57.461827398394	1.002
12	188660	57.511827398394	1.002
12	188919	57.561827398394	1.002
12	189047	57.611827398394	1.002
12	189306	57.661827398394	1.002
12	189434	57.711827398394	1.002
12	189682	57.761827398394	1.002
12	189810	57.811827398394	1.002
12	190047	57.861827398394	1.002
12	190175	57.911827398394	1.002
12	190423	57.961827398394	1.002
12	190551	58.011827398394	1.002
12	190826	58.061827398394	1.002
12	190954	58.111827398394	1.002
12	191213	58.161827398394	1.002
12	191341	58.211827398394	1.002
12	191600	58.261827398394	1.002
12	191728	58.311827398394	1.002
12	191987	58.361827398394	1.002
12	192115	58.411827398394	1.002
12	192358	58.461827398394	1.002
12	192486	58.511827398394	1.002
12	192718	58.561827398394	1.002
12	192846	58.611827398394	1.002
12	193089	58.661827398394	1.002
12	193217	58.711827398394	1.002
12	193465	58.761827398394	1.002
12	193593	58.811827398394	1.002
12	193852	58.861827398394	1.002
12	193980	58.911827398394	1.002
12	194239	58.961827398394	1.002
12	194367	59.011827398394	1.002
12	194626	59.061827398394	1.002
12	194754	59.111827398394	1.002
12	195013	59.161827398394	1.002
12	195141	59.211827398394	1.002
12	195416	59.261827398394	1.002
12	195544	59.311827398394	1.002
12	195803	59.361827398394	1.002
12	195931	59.411827398394	1.002
12	196168	59.461827398394	1.002
12	196296	59.511827398394	1.002
12	196544	59.561827398394	1.002
12	196672	59.611827398394	1.002
12	196920	59.661827398394	1.002
12	197048	59.711827398394	1.002
12	197291	59.761827398394	1.002
12	197419	59.811827398394	1.002
12	197667	59.861827398394	1.002
12	197795	59.911827398394	1.002
12	198043	59.961827398394	1.002
12	198171	60.011827398394	1.002
12	198430	60.061827398394	1.002
12	198558	60.111827398394	1.002
12	198817	60.161827398394	1.002
12	198945	60.211827398394	1.002
12	199188	60.261827398394	1.002
12	199316	60.311827398394	1.002
12	199575	60.361827398394	1.002
12	199703	60.411827398394	1.002
12	199946	60.461827398394	1.002
12	200074	60.511827398394	1.002
12	200311	60.561827398394	1.002
12	200439	60.611827398394	1.002
12	200682	60.661827398394	1.002
12	200810	60.711827398394	1.002
12	201053	60.761827398394	1.002
12	201181	60.811827398394	1.002
12	201440	60.861827398394	1.002
12	201568	60.911827398394	1.002
12	201827	60.961827398394	1.002
12	201955	61.011827398394	1.002
12	202214	61.061827398394	1.002
12	202342	61.111827398394	1.002
12	202590	61.161827398394	1.002
12	202718	61.211827398394	1.002
12	202966	61.261827398394	1.002
12	203094	61.311827398394	1.002
12	203337	61.361827398394	1.002
12	203465	61.411827398394	1.002
12	203708	61.461827398394	1.002
12	203836	61.511827398394	1.002
12	204084	61.561827398394	1.002
12	204212	61.611827398394	1.002
12	204455	61.661827398394	1.002
11	27	0.561827398394	1
11	45	0.611827398394	2
11	62	0.661827398394	3
11	80	0.711827398394	4
11	97	0.761827398394	5
11	115	0.811827398394	6
11	132	0.861827398394	7
11	150	0.911827398394	8
11	167	0.961827398394	9
11	185	1.011827398394	10
11	202	1.061827398394	11
11	220	1.111827398394	12
11	237	1.161827398394	13
11	255	1.211827398394	14
11	272	1.261827398394	15
11	290	1.311827398394	16
11	307	1.361827398394	17
11	325	1.411827398394	18
11	342	1.461827398394	19
11	360	1.511827398394	20
11	377	1.561827398394	21
11	395	1.611827398394	22
11	412	1.661827398394	23
11	430	1.711827398394	24
11	447	1.761827398394	25
11	465	1.811827398394	26
11	482	1.861827398394	27
11	500	1.911827398394	28
11	517	1.961827398394	29
11	535	2.011827398394	30
11	552	2.061827398394	31
11	570	2.111827398394	32
11	587	2.161827398394	33
11	605	2.211827398394	34
11	622	2.261827398394	35
11	640	2.311827398394	36
11	657	2.361827398394	37
11	675	2.411827398394	38
11	692	2.461827398394	39
11	710	2.511827398394	40
11	727	2.561827398394	41
11	745	2.611827398394	42
11	762	2.661827398394	43
11	780	2.711827398394	44
11	797	2.761827398394	45
11	815	2.811827398394	46
11	832	2.861827398394	47
11	850	2.911827398394	48
11	867	2.961827398394	49
11	885	3.011827398394	50
11	902	3.061827398394	51
11	920	3.111827398394	52
11	965	3.161827398394	54
11	992	3.211827398394	56
11	1056	3.261827398394	58
11	1083	3.311827398394	60
11	1147	3.361827398394	62
11	1174	3.411827398394	64
11	1238	3.461827398394	66
11	1265	3.511827398394	68
11	1329	3.561827398394	70
11	1356	3.611827398394	72
11	1420	3.661827398394	74
11	1447	3.711827398394	76
11	1511	3.761827398394	78
11	1538	3.811827398394	80
11	1602	3.861827398394	82
11	1629	3.911827398394	84
11	1693	3.961827398394	86
11	1720	4.011827398394	88
11	1784	4.061827398394	90
11	1811	4.111827398394	92
11	1875	4.161827398394	94
11	1902	4.211827398394	96
11	1966	4.261827398394	98
11	1993	4.311827398394	100
11	2057	4.361827398394	102
11	2084	4.411827398394	104
11	2148	4.461827398394	106
11	2175	4.511827398394	108
11	2239	4.561827398394	110
11	2266	4.611827398394	112
11	2330	4.661827398394	114
11	2357	4.711827398394	116
11	2421	4.761827398394	118
11	2448	4.811827398394	120
11	2512	4.861827398394	122
11	2539	4.911827398394	124
11	2603	4.961827398394	126
11	2630	5.011827398394	128
11	2694	5.061827398394	130
11	2721	5.111827398394	132
11	2785	5.161827398394	134
11	2812	5.211827398394	136
11	2876	5.261827398394	138
11	2903	5.311827398394	140
11	2967	5.361827398394	142
11	2994	5.411827398394	144
11	3058	5.461827398394	146
11	3085	5.511827398394	148
11	3149	5.561827398394	150
11	3176	5.611827398394	152
11	3240	5.661827398394	154
11	3267	5.711827398394	156
11	3331	5.761827398394	158
11	3358	5.811827398394	160
11	3422	5.861827398394	162
11	3449	5.911827398394	164
11	3513	5.961827398394	166
11	3540	6.011827398394	168
11	3604	6.061827398394	170
11	3631	6.111827398394	172
11	3714	6.161827398394	174
11	3748	6.211827398394	176
11	3831	6.261827398394	178
11	3865	6.311827398394	180
11	3948	6.361827398394	182
11	3982	6.411827398394	184
11	4065	6.461827398394	186
11	4099	6.511827398394	188
11	4182	6.561827398394	190
11	4216	6.611827398394	192
11	4299	6.661827398394	194
11	4333	6.711827398394	196
11	4416	6.761827398394	198
11	4450	6.811827398394	200
11	4533	6.861827398394	202
11	4594	6.911827398394	205
11	4704	6.961827398394	208
11	4765	7.011827398394	211
11	4865	7.061827398394	214
11	4926	7.111827398394	217
11	5026	7.161827398394	220
11	5087	7.211827398394	223
11	5197	7.261827398394	226
11	5258	7.311827398394	229
11	5368	7.361827398394	232
11	5429	7.411827398394	235
11	5539	7.461827398394	238
11	5600	7.511827398394	241
11	5710	7.561827398394	244
11	5771	7.611827398394	247
11	5881	7.661827398394	250
11	5942	7.711827398394	253
11	6052	7.761827398394	256
11	6113	7.811827398394	259
11	6223	7.861827398394	262
11	6284	7.911827398394	265
11	6394	7.961827398394	268
11	6455	8.011827398394	271
11	6565	8.061827398394	274
11	6626	8.111827398394	277
11	6736	8.161827398394	280
11	6797	8.211827398394	283
11	6907	8.261827398394	286
11	6968	8.311827398394	289
11	7068	8.361827398394	292
11	7129	8.411827398394	295
11	7239	8.461827398394	298
11	7300	8.511827398394	301
11	7410	8.561827398394	304
11	7471	8.611827398394	307
11	7571	8.661827398394	310
11	7632	8.711827398394	313
11	7742	8.761827398394	316
11	7803	8.811827398394	319
11	7913	8.861827398394	322
11	7974	8.911827398394	325
11	8084	8.961827398394	328
11	8145	9.011827398394	331
11	8255	9.061827398394	334
11	8316	9.111827398394	337
11	8438	9.161827398394	340
11	8512	9.211827398394	343
11	8647	9.261827398394	346
11	8721	9.311827398394	349
11	8856	9.361827398394	352
11	8930	9.411827398394	355
11	9052	9.461827398394	358
11	9126	9.511827398394	361
11	9261	9.561827398394	364
11	9335	9.611827398394	367
11	9457	9.661827398394	370
11	9531	9.711827398394	373
11	9666	9.761827398394	376
11	9773	9.811827398394	380
11	9941	9.861827398394	384
11	10048	9.911827398394	388
11	10203	9.961827398394	392
11	10310	10.011827398394	396
11	10478	10.061827398394	400
11	10585	10.111827398394	404
11	10753	10.161827398394	408
11	10860	10.211827398394	412
11	11028	10.261827398394	416
11	11135	10.311827398394	420
11	11290	10.361827398394	424
11	11397	10.411827398394	428
11	11552	10.461827398394	432
11	11659	10.511827398394	436
11	11814	10.561827398394	440
11	11921	10.611827398394	444
11	12076	10.661827398394	448
11	12183	10.711827398394	452
11	12351	10.761827398394	456
11	12458	10.811827398394	460
11	12613	10.861827398394	464
11	12720	10.911827398394	468
11	12875	10.961827398394	472
11	12982	11.011827398394	476
11	13150	11.061827398394	480
11	13257	11.111827398394	484
11	13412	11.161827398394	488
11	13519	11.211827398394	492
11	13687	11.261827398394	496
11	13794	11.311827398394	500
11	13962	11.361827398394	504
11	14069	11.411827398394	508
11	14237	11.461827398394	512
11	14344	11.511827398394	516
11	14499	11.561827398394	520
11	14606	11.611827398394	524
11	14761	11.661827398394	528
11	14868	11.711827398394	532
11	15023	11.761827398394	536
11	15130	11.811827398394	540
11	15285	11.861827398394	544
11	15392	11.911827398394	548
11	15560	11.961827398394	552
11	15667	12.011827398394	556
11	15835	12.061827398394	560
11	15942	12.111827398394	564
11	16154	12.161827398394	569
11	16282	12.211827398394	574
11	16541	12.261827398394	579
11	16669	12.311827398394	584
11	16928	12.361827398394	589
11	17056	12.411827398394	594
11	17305	12.461827398394	599
11	17433	12.511827398394	604
11	17692	12.561827398394	609
11	17820	12.611827398394	614
11	18080	12.661827398394	619
11	18208	12.711827398394	624
11	18453	12.761827398394	629
11	18581	12.811827398394	634
11	18825	12.861827398394	639
11	18953	12.911827398394	644
11	19201	12.961827398394	649
11	19329	13.011827398394	654
11	19589	13.061827398394	659
11	19717	13.111827398394	664
11	19960	13.161827398394	669
11	20088	13.211827398394	674
11	20332	13.261827398394	679
11	20460	13.311827398394	684
11	20719	13.361827398394	689
11	20847	13.411827398394	694
11	21079	13.461827398394	699
11	21207	13.511827398394	704
11	21455	13.561827398394	709
11	21583	13.611827398394	714
11	21827	13.661827398394	719
11	21955	13.711827398394	724
11	22198	13.761827398394	729
11	22326	13.811827398394	734
11	22585	13.861827398394	739
11	22713	13.911827398394	744
11	22972	13.961827398394	749
11	23100	14.011827398394	754
11	23359	14.061827398394	759
11	23487	14.111827398394	764
11	23746	14.161827398394	769
11	23874	14.211827398394	774
11	24133	14.261827398394	779
11	24261	14.311827398394	784
11	24509	14.361827398394	789
11	24637	14.411827398394	794
11	24897	14.461827398394	799
11	25025	14.511827398394	804
11	25284	14.561827398394	809
11	25412	14.611827398394	814
11	25655	14.661827398394	819
11	25783	14.711827398394	824
11	26031	14.761827398394	829
11	26159	14.811827398394	834
11	26402	14.861827398394	839
11	26530	14.911827398394	844
11	26773	14.961827398394	849
11	26901	15.011827398394	854
11	27144	15.061827398394	859
11	27272	15.111827398394	864
11	27531	15.161827398394	869
11	27659	15.211827398394	874
11	27918	15.261827398394	879
11	28046	15.311827398394	884
11	28305	15.361827398394	889
11	28433	15.411827398394	894
11	28670	15.461827398394	899
11	28798	15.511827398394	904
11	29057	15.561827398394	909
11	29185	15.611827398394	914
11	29444	15.661827398394	919
11	29572	15.711827398394	924
11	29831	15.761827398394	929
11	29959	15.811827398394	934
11	30218	15.861827398394	939
11	30346	15.911827398394	944
11	30589	15.961827398394	949
11	30717	16.011827398394	954
11	30965	16.061827398394	959
11	31093	16.111827398394	964
11	31341	16.161827398394	969
11	31469	16.211827398394	974
11	31728	16.261827398394	979
11	31856	16.311827398394	984
11	32099	16.361827398394	989
11	32227	16.411827398394	994
11	32470	16.461827398394	999
11	32598	16.511827398394	1004
11	32857	16.561827398394	1009
11	32985	16.611827398394	1014
11	33244	16.661827398394	1019
11	33372	16.711827398394	1024
11	33604	16.761827398394	1029
11	33732	16.811827398394	1034
11	33980	16.861827398394	1039
11	34108	16.911827398394	1044
11	34351	16.961827398394	1049
11	34479	17.011827398394	1054
11	34722	17.061827398394	1059
11	34850	17.111827398394	1064
11	35109	17.161827398394	1069
11	35237	17.211827398394	1074
11	35485	17.261827398394	1079
11	35613	17.311827398394	1084
11	35856	17.361827398394	1089
11	35984	17.411827398394	1094
11	36232	17.461827398394	1099
11	36360	17.511827398394	1104
11	36619	17.561827398394	1109
11	36747	17.611827398394	1114
11	37006	17.661827398394	1119
11	37134	17.711827398394	1124
11	37377	17.761827398394	1129
11	37505	17.811827398394	1134
11	37748	17.861827398394	1139
11	37876	17.911827398394	1144
11	38135	17.961827398394	1149
11	38263	18.011827398394	1154
11	38511	18.061827398394	1159
11	38639	18.111827398394	1164
11	38882	18.161827398394	1169
11	39010	18.211827398394	1174
11	39253	18.261827398394	1179
11	39381	18.311827398394	1184
11	39640	18.361827398394	1189
11	39768	18.411827398394	1194
11	40016	18.461827398394	1199
11	40144	18.511827398394	1204
11	40403	18.561827398394	1209
11	40531	18.611827398394	1214
11	40790	18.661827398394	1219
11	40918	18.711827398394	1224
11	41177	18.761827398394	1229
11	41305	18.811827398394	1234
11	41553	18.861827398394	1239
11	41681	18.911827398394	1244
11	41924	18.961827398394	1249
11	42052	19.011827398394	1254
11	42311	19.061827398394	1259
11	42439	19.111827398394	1264
11	42687	19.161827398394	1269
11	42815	19.211827398394	1274
11	43058	19.261827398394	1279
11	43186	19.311827398394	1284
11	43445	19.361827398394	1289
11	43573	19.411827398394	1294
11	43832	19.461827398394	1299
11	43960	19.511827398394	1304
11	44208	19.561827398394	1309
11	44336	19.611827398394	1314
11	44595	19.661827398394	1319
11	44723	19.711827398394	1324
11	44982	19.761827398394	1329
11	45110	19.811827398394	1334
11	45369	19.861827398394	1339
11	45497	19.911827398394	1344
11	45745	19.961827398394	1349
11	45873	20.011827398394	1354
11	46116	20.061827398394	1359
11	46244	20.111827398394	1364
11	46503	20.161827398394	1369
11	46631	20.211827398394	1374
11	46874	20.261827398394	1379
11	47002	20.311827398394	1384
11	47261	20.361827398394	1389
11	47389	20.411827398394	1394
11	47648	20.461827398394	1399
11	47776	20.511827398394	1404
11	48051	20.561827398394	1409
11	48179	20.611827398394	1414
11	48427	20.661827398394	1419
11	48555	20.711827398394	1424
11	48798	20.761827398394	1429
11	48926	20.811827398394	1434
11	49174	20.861827398394	1439
11	49302	20.911827398394	1444
11	49550	20.961827398394	1449
11	49678	21.011827398394	1454
11	49921	21.061827398394	1459
11	50049	21.111827398394	1464
11	50324	21.161827398394	1469
11	50452	21.211827398394	1474
11	50700	21.261827398394	1479
11	50828	21.311827398394	1484
11	51087	21.361827398394	1489
11	51215	21.411827398394	1494
11	51463	21.461827398394	1499
11	51591	21.511827398394	1504
11	51850	21.561827398394	1509
11	51978	21.611827398394	1514
11	52253	21.661827398394	1519
11	52381	21.711827398394	1524
11	52624	21.761827398394	1529
11	52752	21.811827398394	1534
11	52995	21.861827398394	1539
11	53123	21.911827398394	1544
11	53371	21.961827398394	1549
11	53499	22.011827398394	1554
11	53731	22.061827398394	1559
11	53859	22.111827398394	1564
11	54118	22.161827398394	1569
11	54246	22.211827398394	1574
11	54505	22.261827398394	1579
11	54633	22.311827398394	1584
11	54881	22.361827398394	1589
11	55009	22.411827398394	1594
11	55268	22.461827398394	1599
11	55396	22.511827398394	1604
11	55639	22.561827398394	1609
11	55767	22.611827398394	1614
11	56026	22.661827398394	1619
11	56154	22.711827398394	1624
11	56413	22.761827398394	1629
11	56541	22.811827398394	1634
11	56784	22.861827398394	1639
11	56912	22.911827398394	1644
11	57171	22.961827398394	1649
11	57299	23.011827398394	1654
11	57558	23.061827398394	1659
11	57686	23.111827398394	1664
11	57945	23.161827398394	1669
11	58073	23.211827398394	1674
11	58332	23.261827398394	1679
11	58460	23.311827398394	1684
11	58719	23.361827398394	1689
11	58847	23.411827398394	1694
11	59106	23.461827398394	1699
11	59234	23.511827398394	1704
11	59482	23.561827398394	1709
11	59610	23.611827398394	1714
11	59853	23.661827398394	1719
11	59981	23.711827398394	1724
11	60240	23.761827398394	1729
11	60368	23.811827398394	1734
11	60611	23.861827398394	1739
11	60739	23.911827398394	1744
11	60998	23.961827398394	1749
11	61126	24.011827398394	1754
11	61385	24.061827398394	1759
11	61513	24.111827398394	1764
11	61772	24.161827398394	1769
11	61900	24.211827398394	1774
11	62159	24.261827398394	1779
11	62287	24.311827398394	1784
11	62530	24.361827398394	1789
11	62658	24.411827398394	1794
11	62917	24.461827398394	1799
11	63045	24.511827398394	1804
11	63304	24.561827398394	1809
11	63432	24.611827398394	1814
11	63691	24.661827398394	1819
11	63819	24.711827398394	1824
11	64067	24.761827398394	1829
11	64195	24.811827398394	1834
11	64438	24.861827398394	1839
11	64566	24.911827398394	1844
11	64803	24.961827398394	1849
11	64931	25.011827398394	1854
11	65190	25.061827398394	1859
11	65318	25.111827398394	1864
11	65577	25.161827398394	1869
11	65705	25.211827398394	1874
11	65948	25.261827398394	1879
11	66076	25.311827398394	1884
11	66335	25.361827398394	1889
11	66463	25.411827398394	1894
11	66722	25.461827398394	1899
11	66850	25.511827398394	1904
11	67098	25.561827398394	1909
11	67226	25.611827398394	1914
11	67474	25.661827398394	1919
11	67602	25.711827398394	1924
11	67861	25.761827398394	1929
11	67989	25.811827398394	1934
11	68248	25.861827398394	1939
11	68376	25.911827398394	1944
11	68651	25.961827398394	1949
11	68779	26.011827398394	1954
11	69054	26.061827398394	1959
11	69182	26.111827398394	1964
11	69425	26.161827398394	1969
11	69553	26.211827398394	1974
11	69801	26.261827398394	1979
11	69929	26.311827398394	1984
11	70172	26.361827398394	1989
11	70300	26.411827398394	1994
11	70548	26.461827398394	1999
11	70676	26.511827398394	2004
11	70924	26.561827398394	2009
11	71052	26.611827398394	2014
11	71295	26.661827398394	2019
11	71423	26.711827398394	2024
11	71666	26.761827398394	2029
11	71794	26.811827398394	2034
11	72031	26.861827398394	2039
11	72159	26.911827398394	2044
11	72407	26.961827398394	2049
11	72535	27.011827398394	2054
11	72783	27.061827398394	2059
11	72911	27.111827398394	2064
11	73159	27.161827398394	2069
11	73287	27.211827398394	2074
11	73546	27.261827398394	2079
11	73674	27.311827398394	2084
11	73933	27.361827398394	2089
11	74061	27.411827398394	2094
11	74320	27.461827398394	2099
11	74448	27.511827398394	2104
11	74691	27.561827398394	2109
11	74819	27.611827398394	2114
11	75078	27.661827398394	2119
11	75206	27.711827398394	2124
11	75465	27.761827398394	2129
11	75593	27.811827398394	2134
11	75825	27.861827398394	2139
11	75953	27.911827398394	2144
11	76201	27.961827398394	2149
11	76329	28.011827398394	2154
11	76577	28.061827398394	2159
11	76705	28.111827398394	2164
11	76948	28.161827398394	2169
11	77076	28.211827398394	2174
11	77335	28.261827398394	2179
11	77463	28.311827398394	2184
11	77722	28.361827398394	2189
11	77850	28.411827398394	2194
11	78093	28.461827398394	2199
11	78221	28.511827398394	2204
11	78480	28.561827398394	2209
11	78608	28.611827398394	2214
11	78867	28.661827398394	2219
11	78995	28.711827398394	2224
11	79243	28.761827398394	2229
11	79371	28.811827398394	2234
11	79614	28.861827398394	2239
11	79742	28.911827398394	2244
11	79990	28.961827398394	2249
11	80118	29.011827398394	2254
11	80377	29.061827398394	2259
11	80505	29.111827398394	2264
11	80764	29.161827398394	2269
11	80892	29.211827398394	2274
11	81151	29.261827398394	2279
11	81279	29.311827398394	2284
11	81527	29.361827398394	2289
11	81655	29.411827398394	2294
11	81914	29.461827398394	2299
11	82042	29.511827398394	2304
11	82285	29.561827398394	2309
11	82413	29.611827398394	2314
11	82672	29.661827398394	2319
11	82800	29.711827398394	2324
11	83059	29.761827398394	2329
11	83187	29.811827398394	2334
11	83446	29.861827398394	2339
11	83574	29.911827398394	2344
11	83833	29.961827398394	2349
11	83961	30.011827398394	2354
11	84204	30.061827398394	2359
11	84332	30.111827398394	2364
11	84575	30.161827398394	2369
11	84703	30.211827398394	2374
11	84962	30.261827398394	2379
11	85090	30.311827398394	2384
11	85349	30.361827398394	2389
11	85477	30.411827398394	2394
11	85752	30.461827398394	2399
11	85880	30.511827398394	2404
11	86139	30.561827398394	2409
11	86267	30.611827398394	2414
11	86510	30.661827398394	2419
11	86638	30.711827398394	2424
11	86897	30.761827398394	2429
11	87025	30.811827398394	2434
11	87273	30.861827398394	2439
11	87401	30.911827398394	2444
11	87660	30.961827398394	2449
11	87788	31.011827398394	2454
11	88047	31.061827398394	2459
11	88175	31.111827398394	2464
11	88434	31.161827398394	2469
11	88562	31.211827398394	2474
11	88810	31.261827398394	2479
11	88938	31.311827398394	2484
11	89181	31.361827398394	2489
11	89309	31.411827398394	2494
11	89568	31.461827398394	2499
11	89696	31.511827398394	2504
11	89939	31.561827398394	2509
11	90067	31.611827398394	2514
11	90326	31.661827398394	2519
11	90454	31.711827398394	2524
11	90702	31.761827398394	2529
11	90830	31.811827398394	2534
11	91089	31.861827398394	2539
11	91217	31.911827398394	2544
11	91460	31.961827398394	2549
11	91588	32.011827398394	2554
11	91847	32.061827398394	2559
11	91975	32.111827398394	2564
11	92223	32.161827398394	2569
11	92351	32.211827398394	2574
11	92610	32.261827398394	2579
11	92738	32.311827398394	2584
11	92986	32.361827398394	2589
11	93114	32.411827398394	2594
11	93373	32.461827398394	2599
11	93501	32.511827398394	2604
11	93760	32.561827398394	2609
11	93888	32.611827398394	2614
11	94136	32.661827398394	2619
11	94264	32.711827398394	2624
11	94539	32.761827398394	2629
11	94667	32.811827398394	2634
11	94926	32.861827398394	2639
11	95054	32.911827398394	2644
11	95286	32.961827398394	2649
11	95414	33.011827398394	2654
11	95673	33.061827398394	2659
11	95801	33.111827398394	2664
11	96060	33.161827398394	2669
11	96188	33.211827398394	2674
11	96436	33.261827398394	2679
11	96564	33.311827398394	2684
11	96807	33.361827398394	2689
11	96935	33.411827398394	2694
11	97178	33.461827398394	2699
11	97306	33.511827398394	2704
11	97549	33.561827398394	2709
11	97677	33.611827398394	2714
11	97925	33.661827398394	2719
11	98053	33.711827398394	2724
11	98328	33.761827398394	2729
11	98456	33.811827398394	2734
11	98715	33.861827398394	2739
11	98843	33.911827398394	2744
11	99102	33.961827398394	2749
11	99230	34.011827398394	2754
11	99489	34.061827398394	2759
11	99617	34.111827398394	2764
11	99876	34.161827398394	2769
11	100004	34.211827398394	2774
11	100263	34.261827398394	2779
11	100391	34.311827398394	2784
11	100634	34.361827398394	2789
11	100762	34.411827398394	2794
11	101010	34.461827398394	2799
11	101138	34.511827398394	2804
11	101386	34.561827398394	2809
11	101514	34.611827398394	2814
11	101773	34.661827398394	2819
11	101901	34.711827398394	2824
11	102160	34.761827398394	2829
11	102288	34.811827398394	2834
11	102547	34.861827398394	2839
11	102675	34.911827398394	2844
11	102934	34.961827398394	2849
11	103062	35.011827398394	2854
11	103337	35.061827398394	2859
11	103465	35.111827398394	2864
11	103713	35.161827398394	2869
11	103841	35.211827398394	2874
11	104089	35.261827398394	2879
11	104217	35.311827398394	2884
11	104476	35.361827398394	2889
11	104604	35.411827398394	2894
11	104852	35.461827398394	2899
11	104980	35.511827398394	2904
11	105223	35.561827398394	2909
11	105351	35.611827398394	2914
11	105610	35.661827398394	2919
11	105738	35.711827398394	2924
11	105986	35.761827398394	2929
11	106114	35.811827398394	2934
11	106357	35.861827398394	2939
11	106485	35.911827398394	2944
11	106744	35.961827398394	2949
11	106872	36.011827398394	2954
11	107115	36.061827398394	2959
11	107243	36.111827398394	2964
11	107502	36.161827398394	2969
11	107630	36.211827398394	2974
11	107889	36.261827398394	2979
11	108017	36.311827398394	2984
11	108276	36.361827398394	2989
11	108404	36.411827398394	2994
11	108647	36.461827398394	2999
11	108775	36.511827398394	3004
11	109050	36.561827398394	3009
11	109178	36.611827398394	3014
11	109437	36.661827398394	3019
11	109565	36.711827398394	3024
11	109808	36.761827398394	3029
11	109936	36.811827398394	3034
11	110184	36.861827398394	3039
11	110312	36.911827398394	3044
11	110571	36.961827398394	3049
11	110699	37.011827398394	3054
11	110958	37.061827398394	3059
11	111086	37.111827398394	3064
11	111329	37.161827398394	3069
11	111457	37.211827398394	3074
11	111716	37.261827398394	3079
11	111844	37.311827398394	3084
11	112103	37.361827398394	3089
11	112231	37.411827398394	3094
11	112490	37.461827398394	3099
11	112618	37.511827398394	3104
11	112861	37.561827398394	3109
11	112989	37.611827398394	3114
11	113232	37.661827398394	3119
11	113360	37.711827398394	3124
11	113603	37.761827398394	3129
11	113731	37.811827398394	3134
11	113979	37.861827398394	3139
11	114107	37.911827398394	3144
11	114366	37.961827398394	3149
11	114494	38.011827398394	3154
11	114726	38.061827398394	3159
11	114854	38.111827398394	3164
11	115102	38.161827398394	3169
11	115230	38.211827398394	3174
11	115489	38.261827398394	3179
11	115617	38.311827398394	3184
11	115865	38.361827398394	3189
11	115993	38.411827398394	3194
11	116241	38.461827398394	3199
11	116369	38.511827398394	3204
11	116617	38.561827398394	3209
11	116745	38.611827398394	3214
11	117004	38.661827398394	3219
11	117132	38.711827398394	3224
11	117391	38.761827398394	3229
11	117519	38.811827398394	3234
11	117778	38.861827398394	3239
11	117906	38.911827398394	3244
11	118154	38.961827398394	3249
11	118282	39.011827398394	3254
11	118525	39.061827398394	3259
11	118653	39.111827398394	3264
11	118912	39.161827398394	3269
11	119040	39.211827398394	3274
11	119288	39.261827398394	3279
11	119416	39.311827398394	3284
11	119675	39.361827398394	3289
11	119803	39.411827398394	3294
11	120051	39.461827398394	3299
11	120179	39.511827398394	3304
11	120427	39.561827398394	3309
11	120555	39.611827398394	3314
11	120798	39.661827398394	3319
11	120926	39.711827398394	3324
11	121169	39.761827398394	3329
11	121297	39.811827398394	3334
11	121540	39.861827398394	3339
11	121668	39.911827398394	3344
11	121927	39.961827398394	3349
11	122055	40.011827398394	3354
11	122314	40.061827398394	3359
11	122442	40.111827398394	3364
11	122685	40.161827398394	3369
11	122813	40.211827398394	3374
11	123072	40.261827398394	3379
11	123200	40.311827398394	3384
11	123443	40.361827398394	3389
11	123571	40.411827398394	3394
11	123819	40.461827398394	3399
11	123947	40.511827398394	3404
11	124206	40.561827398394	3409
11	124334	40.611827398394	3414
11	124577	40.661827398394	3419
11	124705	40.711827398394	3424
11	124953	40.761827398394	3429
11	125081	40.811827398394	3434
11	125340	40.861827398394	3439
11	125468	40.911827398394	3444
11	125727	40.961827398394	3449
11	125855	41.011827398394	3454
11	126114	41.061827398394	3459
11	126242	41.111827398394	3464
11	126485	41.161827398394	3469
11	126613	41.211827398394	3474
11	126872	41.261827398394	3479
11	127000	41.311827398394	3484
11	127259	41.361827398394	3489
11	127387	41.411827398394	3494
11	127630	41.461827398394	3499
11	127758	41.511827398394	3504
11	128001	41.561827398394	3509
11	128129	41.611827398394	3514
11	128372	41.661827398394	3519
11	128500	41.711827398394	3524
11	128748	41.761827398394	3529
11	128876	41.811827398394	3534
11	129135	41.861827398394	3539
11	129263	41.911827398394	3544
11	129522	41.961827398394	3549
11	129650	42.011827398394	3554
11	129909	42.061827398394	3559
11	130037	42.111827398394	3564
11	130280	42.161827398394	3569
11	130408	42.211827398394	3574
11	130667	42.261827398394	3579
11	130795	42.311827398394	3584
11	131054	42.361827398394	3589
11	131182	42.411827398394	3594
11	131425	42.461827398394	3599
11	131553	42.511827398394	3604
11	131796	42.561827398394	3609
11	131924	42.611827398394	3614
11	132172	42.661827398394	3619
11	132300	42.711827398394	3624
11	132559	42.761827398394	3629
11	132687	42.811827398394	3634
11	132935	42.861827398394	3639
11	133063	42.911827398394	3644
11	133322	42.961827398394	3649
11	133450	43.011827398394	3654
11	133725	43.061827398394	3659
11	133853	43.111827398394	3664
11	134112	43.161827398394	3669
11	134240	43.211827398394	3674
11	134472	43.261827398394	3679
11	134600	43.311827398394	3684
11	134848	43.361827398394	3689
11	134976	43.411827398394	3694
11	135224	43.461827398394	3699
11	135352	43.511827398394	3704
11	135595	43.561827398394	3709
11	135723	43.611827398394	3714
11	135971	43.661827398394	3719
11	136099	43.711827398394	3724
11	136358	43.761827398394	3729
11	136486	43.811827398394	3734
11	136729	43.861827398394	3739
11	136857	43.911827398394	3744
11	137116	43.961827398394	3749
11	137244	44.011827398394	3754
11	137503	44.061827398394	3759
11	137631	44.111827398394	3764
11	137879	44.161827398394	3769
11	138007	44.211827398394	3774
11	138255	44.261827398394	3779
11	138383	44.311827398394	3784
11	138626	44.361827398394	3789
11	138754	44.411827398394	3794
11	138997	44.461827398394	3799
11	139125	44.511827398394	3804
11	139384	44.561827398394	3809
11	139512	44.611827398394	3814
11	139744	44.661827398394	3819
11	139872	44.711827398394	3824
11	140115	44.761827398394	3829
11	140243	44.811827398394	3834
11	140502	44.861827398394	3839
11	140630	44.911827398394	3844
11	140889	44.961827398394	3849
11	141017	45.011827398394	3854
11	141276	45.061827398394	3859
11	141404	45.111827398394	3864
11	141652	45.161827398394	3869
11	141780	45.211827398394	3874
11	142055	45.261827398394	3879
11	142183	45.311827398394	3884
11	142431	45.361827398394	3889
11	142559	45.411827398394	3894
11	142802	45.461827398394	3899
11	142930	45.511827398394	3904
11	143178	45.561827398394	3909
11	143306	45.611827398394	3914
11	143565	45.661827398394	3919
11	143693	45.711827398394	3924
11	143952	45.761827398394	3929
11	144080	45.811827398394	3934
11	144339	45.861827398394	3939
11	144467	45.911827398394	3944
11	144726	45.961827398394	3949
11	144854	46.011827398394	3954
11	145102	46.061827398394	3959
11	145230	46.111827398394	3964
11	145467	46.161827398394	3969
11	145595	46.211827398394	3974
11	145870	46.261827398394	3979
11	145998	46.311827398394	3984
11	146246	46.361827398394	3989
11	146374	46.411827398394	3994
11	146622	46.461827398394	3999
11	146750	46.511827398394	4004
11	147009	46.561827398394	4009
11	147137	46.611827398394	4014
11	147396	46.661827398394	4019
11	147524	46.711827398394	4024
11	147783	46.761827398394	4029
11	147911	46.811827398394	4034
11	148170	46.861827398394	4039
11	148298	46.911827398394	4044
11	148546	46.961827398394	4049
11	148674	47.011827398394	4054
11	148933	47.061827398394	4059
11	149061	47.111827398394	4064
11	149320	47.161827398394	4069
11	149448	47.211827398394	4074
11	149696	47.261827398394	4079
11	149824	47.311827398394	4084
11	150067	47.361827398394	4089
11	150195	47.411827398394	4094
11	150438	47.461827398394	4099
11	150566	47.511827398394	4104
11	150825	47.561827398394	4109
11	150953	47.611827398394	4114
11	151196	47.661827398394	4119
11	151324	47.711827398394	4124
11	151567	47.761827398394	4129
11	151695	47.811827398394	4134
11	151943	47.861827398394	4139
11	152071	47.911827398394	4144
11	152330	47.961827398394	4149
11	152458	48.011827398394	4154
11	152717	48.061827398394	4159
11	152845	48.111827398394	4164
11	153088	48.161827398394	4169
11	153216	48.211827398394	4174
11	153464	48.261827398394	4179
11	153592	48.311827398394	4184
11	153851	48.361827398394	4189
11	153979	48.411827398394	4194
11	154238	48.461827398394	4199
11	154366	48.511827398394	4204
11	154625	48.561827398394	4209
11	154753	48.611827398394	4214
11	155012	48.661827398394	4219
11	155140	48.711827398394	4224
11	155399	48.761827398394	4229
11	155527	48.811827398394	4234
11	155786	48.861827398394	4239
11	155914	48.911827398394	4244
11	156162	48.961827398394	4249
11	156290	49.011827398394	4254
11	156538	49.061827398394	4259
11	156666	49.111827398394	4264
11	156925	49.161827398394	4269
11	157053	49.211827398394	4274
11	157312	49.261827398394	4279
11	157440	49.311827398394	4284
11	157699	49.361827398394	4289
11	157827	49.411827398394	4294
11	158086	49.461827398394	4299
11	158214	49.511827398394	4304
11	158473	49.561827398394	4309
11	158601	49.611827398394	4314
11	158860	49.661827398394	4319
11	158988	49.711827398394	4324
11	159231	49.761827398394	4329
11	159359	49.811827398394	4334
11	159618	49.861827398394	4339
11	159746	49.911827398394	4344
11	159989	49.961827398394	4349
11	160117	50.011827398394	4354
11	160376	50.061827398394	4359
11	160504	50.111827398394	4364
11	160763	50.161827398394	4369
11	160891	50.211827398394	4374
11	161134	50.261827398394	4379
11	161262	50.311827398394	4384
11	161505	50.361827398394	4389
11	161633	50.411827398394	4394
11	161876	50.461827398394	4399
11	162004	50.511827398394	4404
11	162247	50.561827398394	4409
11	162375	50.611827398394	4414
11	162623	50.661827398394	4419
11	162751	50.711827398394	4424
11	162999	50.761827398394	4429
11	163127	50.811827398394	4434
11	163375	50.861827398394	4439
11	163503	50.911827398394	4444
11	163751	50.961827398394	4449
11	163879	51.011827398394	4454
11	164122	51.061827398394	4459
11	164250	51.111827398394	4464
11	164525	51.161827398394	4469
11	164653	51.211827398394	4474
11	164901	51.261827398394	4479
11	165029	51.311827398394	4484
11	165288	51.361827398394	4489
11	165416	51.411827398394	4494
11	165659	51.461827398394	4499
11	165787	51.511827398394	4504
11	166046	51.561827398394	4509
11	166174	51.611827398394	4514
11	166422	51.661827398394	4519
11	166550	51.711827398394	4524
11	166809	51.761827398394	4529
11	166937	51.811827398394	4534
11	167185	51.861827398394	4539
11	167313	51.911827398394	4544
11	167572	51.961827398394	4549
11	167700	52.011827398394	4554
11	167959	52.061827398394	4559
11	168087	52.111827398394	4564
11	168346	52.161827398394	4569
11	168474	52.211827398394	4574
11	168733	52.261827398394	4579
11	168861	52.311827398394	4584
11	169120	52.361827398394	4589
11	169248	52.411827398394	4594
11	169507	52.461827398394	4599
11	169635	52.511827398394	4604
11	169894	52.561827398394	4609
11	170022	52.611827398394	4614
11	170281	52.661827398394	4619
11	170409	52.711827398394	4624
11	170657	52.761827398394	4629
11	170785	52.811827398394	4634
11	171033	52.861827398394	4639
11	171161	52.911827398394	4644
11	171393	52.961827398394	4649
11	171521	53.011827398394	4654
11	171764	53.061827398394	4659
11	171892	53.111827398394	4664
11	172135	53.161827398394	4669
11	172263	53.211827398394	4674
11	172511	53.261827398394	4679
11	172639	53.311827398394	4684
11	172882	53.361827398394	4689
11	173010	53.411827398394	4694
11	173269	53.461827398394	4699
11	173397	53.511827398394	4704
11	173645	53.561827398394	4709
11	173773	53.611827398394	4714
11	174032	53.661827398394	4719
11	174160	53.711827398394	4724
11	174419	53.761827398394	4729
11	174547	53.811827398394	4734
11	174806	53.861827398394	4739
11	174934	53.911827398394	4744
11	175193	53.961827398394	4749
11	175321	54.011827398394	4754
11	175580	54.061827398394	4759
11	175708	54.111827398394	4764
11	175951	54.161827398394	4769
11	176079	54.211827398394	4774
11	176338	54.261827398394	4779
11	176466	54.311827398394	4784
11	176725	54.361827398394	4789
11	176853	54.411827398394	4794
11	177101	54.461827398394	4799
11	177229	54.511827398394	4804
11	177488	54.561827398394	4809
11	177616	54.611827398394	4814
11	177875	54.661827398394	4819
11	178003	54.711827398394	4824
11	178262	54.761827398394	4829
11	178390	54.811827398394	4834
11	178638	54.861827398394	4839
11	178766	54.911827398394	4844
11	179025	54.961827398394	4849
11	179153	55.011827398394	4854
11	179428	55.061827398394	4859
11	179556	55.111827398394	4864
11	179815	55.161827398394	4869
11	179943	55.211827398394	4874
11	180186	55.261827398394	4879
11	180314	55.311827398394	4884
11	180557	55.361827398394	4889
11	180685	55.411827398394	4894
11	180944	55.461827398394	4899
11	181072	55.511827398394	4904
11	181331	55.561827398394	4909
11	181459	55.611827398394	4914
11	181718	55.661827398394	4919
11	181846	55.711827398394	4924
11	182094	55.761827398394	4929
11	182222	55.811827398394	4934
11	182470	55.861827398394	4939
11	182598	55.911827398394	4944
11	182857	55.961827398394	4949
11	182985	56.011827398394	4954
11	183228	56.061827398394	4959
11	183356	56.111827398394	4964
11	183599	56.161827398394	4969
11	183727	56.211827398394	4974
11	183975	56.261827398394	4979
11	184103	56.311827398394	4984
11	184346	56.361827398394	4989
11	184474	56.411827398394	4994
11	184749	56.461827398394	4999
11	184877	56.511827398394	5004
11	185136	56.561827398394	5009
11	185264	56.611827398394	5014
11	185501	56.661827398394	5019
11	185629	56.711827398394	5024
11	185888	56.761827398394	5029
11	186016	56.811827398394	5034
11	186248	56.861827398394	5039
11	186376	56.911827398394	5044
11	186619	56.961827398394	5049
11	186747	57.011827398394	5054
11	187006	57.061827398394	5059
11	187134	57.111827398394	5064
11	187382	57.161827398394	5069
11	187510	57.211827398394	5074
11	187758	57.261827398394	5079
11	187886	57.311827398394	5084
11	188145	57.361827398394	5089
11	188273	57.411827398394	5094
11	188532	57.461827398394	5099
11	188660	57.511827398394	5104
11	188919	57.561827398394	5109
11	189047	57.611827398394	5114
11	189306	57.661827398394	5119
11	189434	57.711827398394	5124
11	189682	57.761827398394	5129
11	189810	57.811827398394	5134
11	190047	57.861827398394	5139
11	190175	57.911827398394	5144
11	190423	57.961827398394	5149
11	190551	58.011827398394	5154
11	190826	58.061827398394	5159
11	190954	58.111827398394	5164
11	191213	58.161827398394	5169
11	191341	58.211827398394	5174
11	191600	58.261827398394	5179
11	191728	58.311827398394	5184
11	191987	58.361827398394	5189
11	192115	58.411827398394	5194
11	192358	58.461827398394	5199
11	192486	58.511827398394	5204
11	192718	58.561827398394	5209
11	192846	58.611827398394	5214
11	193089	58.661827398394	5219
11	193217	58.711827398394	5224
11	193465	58.761827398394	5229
11	193593	58.811827398394	5234
11	193852	58.861827398394	5239
11	193980	58.911827398394	5244
11	194239	58.961827398394	5249
11	194367	59.011827398394	5254
11	194626	59.061827398394	5259
11	194754	59.111827398394	5264
11	195013	59.161827398394	5269
11	195141	59.211827398394	5274
11	195416	59.261827398394	5279
11	195544	59.311827398394	5284
11	195803	59.361827398394	5289
11	195931	59.411827398394	5294
11	196168	59.461827398394	5299
11	196296	59.511827398394	5304
11	196544	59.561827398394	5309
11	196672	59.611827398394	5314
11	196920	59.661827398394	5319
11	197048	59.711827398394	5324
11	197291	59.761827398394	5329
11	197419	59.811827398394	5334
11	197667	59.861827398394	5339
11	197795	59.911827398394	5344
11	198043	59.961827398394	5349
11	198171	60.011827398394	5354
11	198430	60.061827398394	5359
11	198558	60.111827398394	5364
11	198817	60.161827398394	5369
11	198945	60.211827398394	5374
11	199188	60.261827398394	5379
11	199316	60.311827398394	5384
11	199575	60.361827398394	5389
11	199703	60.411827398394	5394
11	199946	60.461827398394	5399
11	200074	60.511827398394	5404
11	200311	60.561827398394	5409
11	200439	60.611827398394	5414
11	200682	60.661827398394	5419
11	200810	60.711827398394	5424
11	201053	60.761827398394	5429
11	201181	60.811827398394	5434
11	201440	60.861827398394	5439
11	201568	60.911827398394	5444
11	201827	60.961827398394	5449
11	201955	61.011827398394	5454
11	202214	61.061827398394	5459
11	202342	61.111827398394	5464
11	202590	61.161827398394	5469
11	202718	61.211827398394	5474
11	202966	61.261827398394	5479
11	203094	61.311827398394	5484
11	203337	61.361827398394	5489
11	203465	61.411827398394	5494
11	203708	61.461827398394	5499
11	203836	61.511827398394	5504
[...]
9	127769	41.550253279723	1
9	128124	41.600253279723	1.001
9	128140	41.650253279723	1
9	128495	41.700253279723	1.001
9	128511	41.750253279723	1
9	128871	41.800253279723	1.001
9	128887	41.850253279723	1
9	129258	41.900253279723	1.001
9	129274	41.950253279723	1
9	129645	42.000253279723	1.001
9	129661	42.050253279723	1
9	130032	42.100253279723	1.001
9	130048	42.150253279723	1
9	130403	42.200253279723	1.001
9	130419	42.250253279723	1
9	130790	42.300253279723	1.001
9	130806	42.350253279723	1
9	131177	42.400253279723	1.001
9	131193	42.450253279723	1
9	131548	42.500253279723	1.001
9	131564	42.550253279723	1
9	131919	42.600253279723	1.001
9	131935	42.650253279723	1
9	132295	42.700253279723	1.001
9	132311	42.750253279723	1
9	132682	42.800253279723	1.001
9	132698	42.850253279723	1
9	133058	42.900253279723	1.001
9	133074	42.950253279723	1
9	133445	43.000253279723	1.001
9	133461	43.050253279723	1
9	133848	43.100253279723	1.001
9	133864	43.150253279723	1
9	134235	43.200253279723	1.001
9	134251	43.250253279723	1
9	134595	43.300253279723	1.001
9	134611	43.350253279723	1
9	134971	43.400253279723	1.001
9	134987	43.450253279723	1
9	135347	43.500253279723	1.001
9	135363	43.550253279723	1
9	135718	43.600253279723	1.001
9	135734	43.650253279723	1
9	136094	43.700253279723	1.001
9	136110	43.750253279723	1
9	136481	43.800253279723	1.001
9	136497	43.850253279723	1
9	136852	43.900253279723	1.001
9	136868	43.950253279723	1
9	137239	44.000253279723	1.001
9	137255	44.050253279723	1
9	137626	44.100253279723	1.001
9	137642	44.150253279723	1
9	138002	44.200253279723	1.001
9	138018	44.250253279723	1
9	138378	44.300253279723	1.001
9	138394	44.350253279723	1
9	138749	44.400253279723	1.001
9	138765	44.450253279723	1
9	139120	44.500253279723	1.001
9	139136	44.550253279723	1
9	139507	44.600253279723	1.001
9	139523	44.650253279723	1
9	139867	44.700253279723	1.001
9	139883	44.750253279723	1
9	140238	44.800253279723	1.001
9	140254	44.850253279723	1
9	140625	44.900253279723	1.001
9	140641	44.950253279723	1
9	141012	45.000253279723	1.001
9	141028	45.050253279723	1
9	141399	45.100253279723	1.001
9	141415	45.150253279723	1
9	141775	45.200253279723	1.001
9	141791	45.250253279723	1
9	142178	45.300253279723	1.001
9	142194	45.350253279723	1
9	142554	45.400253279723	1.001
9	142570	45.450253279723	1
9	142925	45.500253279723	1.001
9	142941	45.550253279723	1
9	143301	45.600253279723	1.001
9	143317	45.650253279723	1
9	143688	45.700253279723	1.001
9	143704	45.750253279723	1
9	144075	45.800253279723	1.001
9	144091	45.850253279723	1
9	144462	45.900253279723	1.001
9	144478	45.950253279723	1
9	144849	46.000253279723	1.001
9	144865	46.050253279723	1
9	145225	46.100253279723	1.001
9	145241	46.150253279723	1
9	145590	46.200253279723	1.001
9	145606	46.250253279723	1
9	145993	46.300253279723	1.001
9	146009	46.350253279723	1
9	146369	46.400253279723	1.001
9	146385	46.450253279723	1
9	146745	46.500253279723	1.001
9	146761	46.550253279723	1
9	147132	46.600253279723	1.001
9	147148	46.650253279723	1
9	147519	46.700253279723	1.001
9	147535	46.750253279723	1
9	147906	46.800253279723	1.001
9	147922	46.850253279723	1
9	148293	46.900253279723	1.001
9	148309	46.950253279723	1
9	148669	47.000253279723	1.001
9	148685	47.050253279723	1
9	149056	47.100253279723	1.001
9	149072	47.150253279723	1
9	149443	47.200253279723	1.001
9	149459	47.250253279723	1
9	149819	47.300253279723	1.001
9	149835	47.350253279723	1
9	150190	47.400253279723	1.001
9	150206	47.450253279723	1
9	150561	47.500253279723	1.001
9	150577	47.550253279723	1
9	150948	47.600253279723	1.001
9	150964	47.650253279723	1
9	151319	47.700253279723	1.001
9	151335	47.750253279723	1
9	151690	47.800253279723	1.001
9	151706	47.850253279723	1
9	152066	47.900253279723	1.001
9	152082	47.950253279723	1
9	152453	48.000253279723	1.001
9	152469	48.050253279723	1
9	152840	48.100253279723	1.001
9	152856	48.150253279723	1
9	153211	48.200253279723	1.001
9	153227	48.250253279723	1
9	153587	48.300253279723	1.001
9	153603	48.350253279723	1
9	153974	48.400253279723	1.001
9	153990	48.450253279723	1
9	154361	48.500253279723	1.001
9	154377	48.550253279723	1
9	154748	48.600253279723	1.001
9	154764	48.650253279723	1
9	155135	48.700253279723	1.001
9	155151	48.750253279723	1
9	155522	48.800253279723	1.001
9	155538	48.850253279723	1
9	155909	48.900253279723	1.001
9	155925	48.950253279723	1
9	156285	49.000253279723	1.001
9	156301	49.050253279723	1
9	156661	49.100253279723	1.001
9	156677	49.150253279723	1
9	157048	49.200253279723	1.001
9	157064	49.250253279723	1
9	157435	49.300253279723	1.001
9	157451	49.350253279723	1
9	157822	49.400253279723	1.001
9	157838	49.450253279723	1
9	158209	49.500253279723	1.001
9	158225	49.550253279723	1
9	158596	49.600253279723	1.001
9	158612	49.650253279723	1
9	158983	49.700253279723	1.001
9	158999	49.750253279723	1
9	159354	49.800253279723	1.001
9	159370	49.850253279723	1
9	159741	49.900253279723	1.001
9	159757	49.950253279723	1
9	160112	50.000253279723	1.001
9	160128	50.050253279723	1
9	160499	50.100253279723	1.001
9	160515	50.150253279723	1
9	160886	50.200253279723	1.001
9	160902	50.250253279723	1
9	161257	50.300253279723	1.001
9	161273	50.350253279723	1
9	161628	50.400253279723	1.001
9	161644	50.450253279723	1
9	161999	50.500253279723	1.001
9	162015	50.550253279723	1
9	162370	50.600253279723	1.001
9	162386	50.650253279723	1
9	162746	50.700253279723	1.001
9	162762	50.750253279723	1
9	163122	50.800253279723	1.001
9	163138	50.850253279723	1
9	163498	50.900253279723	1.001
9	163514	50.950253279723	1
9	163874	51.000253279723	1.001
9	163890	51.050253279723	1
9	164245	51.100253279723	1.001
9	164261	51.150253279723	1
9	164648	51.200253279723	1.001
9	164664	51.250253279723	1
9	165024	51.300253279723	1.001
9	165040	51.350253279723	1
9	165411	51.400253279723	1.001
9	165427	51.450253279723	1
9	165782	51.500253279723	1.001
9	165798	51.550253279723	1
9	166169	51.600253279723	1.001
9	166185	51.650253279723	1
9	166545	51.700253279723	1.001
9	166561	51.750253279723	1
9	166932	51.800253279723	1.001
9	166948	51.850253279723	1
9	167308	51.900253279723	1.001
9	167324	51.950253279723	1
9	167695	52.000253279723	1.001
9	167711	52.050253279723	1
9	168082	52.100253279723	1.001
9	168098	52.150253279723	1
9	168469	52.200253279723	1.001
9	168485	52.250253279723	1
9	168856	52.300253279723	1.001
9	168872	52.350253279723	1
9	169243	52.400253279723	1.001
9	169259	52.450253279723	1
9	169630	52.500253279723	1.001
9	169646	52.550253279723	1
9	170017	52.600253279723	1.001
9	170033	52.650253279723	1
9	170404	52.700253279723	1.001
9	170420	52.750253279723	1
9	170780	52.800253279723	1.001
9	170796	52.850253279723	1
9	171156	52.900253279723	1.001
9	171172	52.950253279723	1
9	171516	53.000253279723	1.001
9	171532	53.050253279723	1
9	171887	53.100253279723	1.001
9	171903	53.150253279723	1
9	172258	53.200253279723	1.001
9	172274	53.250253279723	1
9	172634	53.300253279723	1.001
9	172650	53.350253279723	1
9	173005	53.400253279723	1.001
9	173021	53.450253279723	1
9	173392	53.500253279723	1.001
9	173408	53.550253279723	1
9	173768	53.600253279723	1.001
9	173784	53.650253279723	1
9	174155	53.700253279723	1.001
9	174171	53.750253279723	1
9	174542	53.800253279723	1.001
9	174558	53.850253279723	1
9	174929	53.900253279723	1.001
9	174945	53.950253279723	1
9	175316	54.000253279723	1.001
9	175332	54.050253279723	1
9	175703	54.100253279723	1.001
9	175719	54.150253279723	1
9	176074	54.200253279723	1.001
9	176090	54.250253279723	1
9	176461	54.300253279723	1.001
9	176477	54.350253279723	1
9	176848	54.400253279723	1.001
9	176864	54.450253279723	1
9	177224	54.500253279723	1.001
9	177240	54.550253279723	1
9	177611	54.600253279723	1.001
9	177627	54.650253279723	1
9	177998	54.700253279723	1.001
9	178014	54.750253279723	1
9	178385	54.800253279723	1.001
9	178401	54.850253279723	1
9	178761	54.900253279723	1.001
9	178777	54.950253279723	1
9	179148	55.000253279723	1.001
9	179164	55.050253279723	1
9	179551	55.100253279723	1.001
9	179567	55.150253279723	1
9	179938	55.200253279723	1.001
9	179954	55.250253279723	1
9	180309	55.300253279723	1.001
9	180325	55.350253279723	1
9	180680	55.400253279723	1.001
9	180696	55.450253279723	1
9	181067	55.500253279723	1.001
9	181083	55.550253279723	1
9	181454	55.600253279723	1.001
9	181470	55.650253279723	1
9	181841	55.700253279723	1.001
9	181857	55.750253279723	1
9	182217	55.800253279723	1.001
9	182233	55.850253279723	1
9	182593	55.900253279723	1.001
9	182609	55.950253279723	1
9	182980	56.000253279723	1.001
9	182996	56.050253279723	1
9	183351	56.100253279723	1.001
9	183367	56.150253279723	1
9	183722	56.200253279723	1.001
9	183738	56.250253279723	1
9	184098	56.300253279723	1.001
9	184114	56.350253279723	1
9	184469	56.400253279723	1.001
9	184485	56.450253279723	1
9	184872	56.500253279723	1.001
9	184888	56.550253279723	1
9	185259	56.600253279723	1.001
9	185275	56.650253279723	1
9	185624	56.700253279723	1.001
9	185640	56.750253279723	1
9	186011	56.800253279723	1.001
9	186027	56.850253279723	1
9	186371	56.900253279723	1.001
9	186387	56.950253279723	1
9	186742	57.000253279723	1.001
9	186758	57.050253279723	1
9	187129	57.100253279723	1.001
9	187145	57.150253279723	1
9	187505	57.200253279723	1.001
9	187521	57.250253279723	1
9	187881	57.300253279723	1.001
9	187897	57.350253279723	1
9	188268	57.400253279723	1.001
9	188284	57.450253279723	1
9	188655	57.500253279723	1.001
9	188671	57.550253279723	1
9	189042	57.600253279723	1.001
9	189058	57.650253279723	1
9	189429	57.700253279723	1.001
9	189445	57.750253279723	1
9	189805	57.800253279723	1.001
9	189821	57.850253279723	1
9	190170	57.900253279723	1.001
9	190186	57.950253279723	1
9	190546	58.000253279723	1.001
9	190562	58.050253279723	1
9	190949	58.100253279723	1.001
9	190965	58.150253279723	1
9	191336	58.200253279723	1.001
9	191352	58.250253279723	1
9	191723	58.300253279723	1.001
9	191739	58.350253279723	1
9	192110	58.400253279723	1.001
9	192126	58.450253279723	1
9	192481	58.500253279723	1.001
9	192497	58.550253279723	1
9	192841	58.600253279723	1.001
9	192857	58.650253279723	1
9	193212	58.700253279723	1.001
9	193228	58.750253279723	1
9	193588	58.800253279723	1.001
9	193604	58.850253279723	1
9	193975	58.900253279723	1.001
9	193991	58.950253279723	1
9	194362	59.000253279723	1.001
9	194378	59.050253279723	1
9	194749	59.100253279723	1.001
9	194765	59.150253279723	1
9	195136	59.200253279723	1.001
9	195152	59.250253279723	1
9	195539	59.300253279723	1.001
9	195555	59.350253279723	1
9	195926	59.400253279723	1.001
9	195942	59.450253279723	1
9	196291	59.500253279723	1.001
9	196307	59.550253279723	1
9	196667	59.600253279723	1.001
9	196683	59.650253279723	1
9	197043	59.700253279723	1.001
9	197059	59.750253279723	1
9	197414	59.800253279723	1.001
9	197430	59.850253279723	1
9	197790	59.900253279723	1.001
9	197806	59.950253279723	1
9	198166	60.000253279723	1.001
9	198182	60.050253279723	1
9	198553	60.100253279723	1.001
9	198569	60.150253279723	1
9	198940	60.200253279723	1.001
9	198956	60.250253279723	1
9	199311	60.300253279723	1.001
9	199327	60.350253279723	1
9	199698	60.400253279723	1.001
9	199714	60.450253279723	1
9	200069	60.500253279723	1.001
9	200085	60.550253279723	1
9	200434	60.600253279723	1.001
9	200450	60.650253279723	1
9	200805	60.700253279723	1.001
9	200821	60.750253279723	1
9	201176	60.800253279723	1.001
9	201192	60.850253279723	1
9	201563	60.900253279723	1.001
9	201579	60.950253279723	1
9	201950	61.000253279723	1.001
9	201966	61.050253279723	1
9	202337	61.100253279723	1.001
9	202353	61.150253279723	1
9	202713	61.200253279723	1.001
9	202729	61.250253279723	1
9	203089	61.300253279723	1.001
9	203105	61.350253279723	1
9	203460	61.400253279723	1.001
9	203476	61.450253279723	1
9	203831	61.500253279723	1.001
9	203847	61.550253279723	1
9	204207	61.600253279723	1.001
9	204223	61.650253279723	1
9	204577	61.700253279723	1.001
9	204590	61.750253279723	1
9	204839	61.800253279723	1.001
9	204852	61.850253279723	1
9	205101	61.900253279723	1.001
9	205114	61.950253279723	1
9	205363	62.000253279723	1.001
9	205376	62.050253279723	1
9	205625	62.100253279723	1.001
9	205638	62.150253279723	1
9	205900	62.200253279723	1.001
9	205913	62.250253279723	1
9	206175	62.300253279723	1.001
9	206188	62.350253279723	1
9	206450	62.400253279723	1.001
9	206463	62.450253279723	1
9	206712	62.500253279723	1.001
9	206725	62.550253279723	1
9	206974	62.600253279723	1.001
9	206987	62.650253279723	1
9	207249	62.700253279723	1.001
9	207262	62.750253279723	1
9	207511	62.800253279723	1.001
9	207524	62.850253279723	1
9	207760	62.900253279723	1.001
9	207773	62.950253279723	1
9	208022	63.000253279723	1.001
9	208035	63.050253279723	1
9	208297	63.100253279723	1.001
9	208310	63.150253279723	1
9	208572	63.200253279723	1.001
9	208585	63.250253279723	1
9	208834	63.300253279723	1.001
9	208847	63.350253279723	1
9	209096	63.400253279723	1.001
9	209109	63.450253279723	1
9	209358	63.500253279723	1.001
9	209371	63.550253279723	1
9	209620	63.600253279723	1.001
9	209633	63.650253279723	1
9	209882	63.700253279723	1.001
9	209895	63.750253279723	1
9	210144	63.800253279723	1.001
9	210157	63.850253279723	1
9	210419	63.900253279723	1.001
9	210432	63.950253279723	1
9	210694	64.000253279723	1.001
9	210707	64.050253279723	1
9	210956	64.100253279723	1.001
9	210969	64.150253279723	1
9	211218	64.200253279723	1.001
9	211231	64.250253279723	1
9	211480	64.300253279723	1.001
9	211493	64.350253279723	1
9	211742	64.400253279723	1.001
9	211755	64.450253279723	1
9	212017	64.500253279723	1.001
9	212030	64.550253279723	1
9	212278	64.600253279723	1.001
9	212288	64.650253279723	1
9	212449	64.700253279723	1.001
9	212459	64.750253279723	1
9	212620	64.800253279723	1.001
9	212630	64.850253279723	1
9	212791	64.900253279723	1.001
9	212801	64.950253279723	1
9	212952	65.000253279723	1.001
9	212962	65.050253279723	1
9	213123	65.100253279723	1.001
9	213133	65.150253279723	1
9	213294	65.200253279723	1.001
9	213304	65.250253279723	1
9	213455	65.300253279723	1.001
9	213465	65.350253279723	1
9	213616	65.400253279723	1.001
9	213626	65.450253279723	1
9	213777	65.500253279723	1.001
9	213787	65.550253279723	1
9	213938	65.600253279723	1.001
9	213948	65.650253279723	1
9	214099	65.700253279723	1.001
9	214109	65.750253279723	1
9	214260	65.800253279723	1.001
9	214270	65.850253279723	1
9	214421	65.900253279723	1.001
9	214431	65.950253279723	1
9	214592	66.000253279723	1.001
9	214602	66.050253279723	1
9	214763	66.100253279723	1.001
9	214773	66.150253279723	1
9	214924	66.200253279723	1.001
9	214934	66.250253279723	1
9	215095	66.300253279723	1.001
9	215105	66.350253279723	1
9	215266	66.400253279723	1.001
9	215276	66.450253279723	1
9	215427	66.500253279723	1.001
9	215437	66.550253279723	1
9	215598	66.600253279723	1.001
9	215608	66.650253279723	1
9	215759	66.700253279723	1.001
9	215769	66.750253279723	1
9	215930	66.800253279723	1.001
9	215940	66.850253279723	1
9	216091	66.900253279723	1.001
9	216101	66.950253279723	1
9	216262	67.000253279723	1.001
9	216272	67.050253279723	1
9	216423	67.100253279723	1.001
9	216433	67.150253279723	1
9	216584	67.200253279723	1.001
9	216594	67.250253279723	1
9	216755	67.300253279723	1.001
9	216765	67.350253279723	1
9	216926	67.400253279723	1.001
9	216936	67.450253279723	1
9	217087	67.500253279723	1.001
9	217097	67.550253279723	1
9	217257	67.600253279723	1.001
9	217264	67.650253279723	1
9	217348	67.700253279723	1.001
9	217355	67.750253279723	1
9	217439	67.800253279723	1.001
9	217446	67.850253279723	1
9	217523	67.900253279723	1.001
9	217530	67.950253279723	1
9	217614	68.000253279723	1.001
9	217621	68.050253279723	1
9	217705	68.100253279723	1.001
9	217712	68.150253279723	1
9	217796	68.200253279723	1.001
9	217803	68.250253279723	1
9	217887	68.300253279723	1.001
9	217894	68.350253279723	1
9	217978	68.400253279723	1.001
9	217985	68.450253279723	1
9	218069	68.500253279723	1.001
9	218076	68.550253279723	1
9	218153	68.600253279723	1.001
9	218160	68.650253279723	1
9	218244	68.700253279723	1.001
9	218251	68.750253279723	1
9	218335	68.800253279723	1.001
9	218342	68.850253279723	1
9	218426	68.900253279723	1.001
9	218433	68.950253279723	1
9	218510	69.000253279723	1.001
9	218517	69.050253279723	1
9	218601	69.100253279723	1.001
9	218608	69.150253279723	1
9	218692	69.200253279723	1.001
9	218699	69.250253279723	1
9	218783	69.300253279723	1.001
9	218790	69.350253279723	1
9	218874	69.400253279723	1.001
9	218881	69.450253279723	1
9	218965	69.500253279723	1.001
9	218972	69.550253279723	1
9	219049	69.600253279723	1.001
9	219056	69.650253279723	1
9	219140	69.700253279723	1.001
9	219147	69.750253279723	1
9	219231	69.800253279723	1.001
9	219238	69.850253279723	1
9	219322	69.900253279723	1.001
9	219329	69.950253279723	1
9	219413	70.000253279723	1.001
9	219420	70.050253279723	1
9	219504	70.100253279723	1.001
9	219511	70.150253279723	1
9	219595	70.200253279723	1.001
9	219602	70.250253279723	1
9	219679	70.300253279723	1.001
9	219686	70.350253279723	1
9	219770	70.400253279723	1.001
9	219777	70.450253279723	1
9	219861	70.500253279723	1.001
9	219868	70.550253279723	1
9	219952	70.600253279723	1.001
9	219959	70.650253279723	1
9	220035	70.700253279723	1.001
9	220039	70.750253279723	1
9	220070	70.800253279723	1.001
9	220074	70.850253279723	1
9	220105	70.900253279723	1.001
9	220109	70.950253279723	1
9	220140	71.000253279723	1.001
9	220144	71.050253279723	1
9	220175	71.100253279723	1.001
9	220179	71.150253279723	1
9	220210	71.200253279723	1.001
9	220214	71.250253279723	1
9	220245	71.300253279723	1.001
9	220249	71.350253279723	1
9	220280	71.400253279723	1.001
9	220284	71.450253279723	1
9	220315	71.500253279723	1.001
9	220319	71.550253279723	1
9	220350	71.600253279723	1.001
9	220354	71.650253279723	1
9	220385	71.700253279723	1.001
9	220389	71.750253279723	1
9	220420	71.800253279723	1.001
9	220424	71.850253279723	1
9	220455	71.900253279723	1.001
9	220459	71.950253279723	1
9	220490	72.000253279723	1.001
9	220494	72.050253279723	1
9	220525	72.100253279723	1.001
9	220529	72.150253279723	1
9	220560	72.200253279723	1.001
9	220564	72.250253279723	1
9	220595	72.300253279723	1.001
9	220599	72.350253279723	1
9	220630	72.400253279723	1.001
9	220634	72.450253279723	1
9	220665	72.500253279723	1.001
9	220669	72.550253279723	1
9	220700	72.600253279723	1.001
9	220704	72.650253279723	1
9	220735	72.700253279723	1.001
9	220739	72.750253279723	1
9	220770	72.800253279723	1.001
9	220774	72.850253279723	1
9	220805	72.900253279723	1.001
9	220809	72.950253279723	1
9	220840	73.000253279723	1.001
9	220844	73.050253279723	1
9	220875	73.100253279723	1.001
9	220879	73.150253279723	1
9	220910	73.200253279723	1.001
9	220914	73.250253279723	1
9	220945	73.300253279723	1.001
9	220949	73.350253279723	1
9	220980	73.400253279723	1.001
9	220984	73.450253279723	1
9	221015	73.500253279723	1.001
9	221019	73.550253279723	1
9	221049	73.600253279723	1.001
9	221050	73.650253279723	1
9	221051	73.700253279723	1.001
9	221052	73.750253279723	1
9	221053	73.800253279723	1.001
9	221054	73.850253279723	1
9	221055	73.900253279723	1.001
9	221056	73.950253279723	1
9	221057	74.000253279723	1.001
9	221058	74.050253279723	1
9	221059	74.100253279723	1.001
9	221060	74.150253279723	1
9	221061	74.200253279723	1.001
9	221062	74.250253279723	1
9	221063	74.300253279723	1.001
9	221064	74.350253279723	1
9	221065	74.400253279723	1.001
9	221066	74.450253279723	1
9	221067	74.500253279723	1.001
9	221068	74.550253279723	1
9	221069	74.600253279723	1.001
9	221070	74.650253279723	1
9	221071	74.700253279723	1.001
9	221072	74.750253279723	1
9	221073	74.800253279723	1.001
9	221074	74.850253279723	1
9	221075	74.900253279723	1.001
9	221076	74.950253279723	1
9	221077	75.000253279723	1.001
9	221078	75.050253279723	1
9	221079	75.100253279723	1.001
9	221080	75.150253279723	1
9	221081	75.200253279723	1.001
9	221082	75.250253279723	1
9	221083	75.300253279723	1.001
9	221084	75.350253279723	1
9	221085	75.400253279723	1.001
9	221086	75.450253279723	1
9	221087	75.500253279723	1.001
9	221088	75.550253279723	1
9	221089	75.600253279723	1.001
9	221090	75.650253279723	1
9	221091	75.700253279723	1.001
9	221092	75.750253279723	1
9	221093	75.800253279723	1.001
9	221094	75.850253279723	1
9	221095	75.900253279723	1.001
9	221096	75.950253279723	1
