version 2
run VoIP-50ms_440B-5-20160923-14:16:32-14734
attr configname VoIP-50ms_440B
attr datetime 20160923-14:16:32
attr experiment VoIP-50ms_440B
attr inifile omnetpp.ini
attr iterationvars ""
attr iterationvars2 $repetition=5
attr measurement ""
attr network SymScenerio
attr processid 14734
attr repetition 5
attr replication #5
attr resultdir results
attr runnumber 5
attr seedset 5
param **.coreDebug false
param **.debug false
param *.**.nic.mac1609_4.bitrate 18Mbps
param *.**.nic.mac1609_4.txPower 20mW
param *.**.nic.mac1609_4.useServiceChannel true
param *.**.nic.phy80211p.analogueModels "xmldoc(\"config.xml\")"
param *.**.nic.phy80211p.decider "xmldoc(\"config.xml\")"
param *.**.nic.phy80211p.sensitivity -89dBm
param *.**.nic.phy80211p.thermalNoise -110dBm
param *.**.nic.phy80211p.usePropagationDelay true
param *.**.nic.phy80211p.useThermalNoise true
param *.annotations.draw false
param *.connectionManager.alpha 2.0
param *.connectionManager.carrierFrequency "5.890e9 Hz"
param *.connectionManager.pMax 20mW
param *.connectionManager.sat -89dBm
param *.connectionManager.sendDirect true
param *.manager.autoShutdown true
param *.manager.host "\"localhost\""
param *.manager.launchConfig "xmldoc(\"map.launchd.xml\")"
param *.manager.margin 25
param *.manager.moduleDisplayString "\"\""
param *.manager.moduleName "\"node\""
param *.manager.moduleType "\"symulacja.veins.nodes.Car\""
param *.manager.port 9999
param *.manager.updateInterval 0.1s
param *.node[*].appl.beaconInterval 1s
param *.node[*].appl.beaconPriority 3
param *.node[*].appl.dataOnSch false
param *.node[*].appl.dataPriority 2
param *.node[*].appl.debug false
param *.node[*].appl.maxOffset 0.005s
param *.node[*].appl.sendBeacons false
param *.node[*].appl.sendData true
param *.node[*].appl.sendVoIP true
param *.node[*].appl.voipInterval 0.050s
param *.node[*].appl.voipLengthBits 3520bit
param *.node[*].appl.voipOnSch true
param *.node[*].appl.voipPriority 3
param *.node[*].applType "\"Sym11p\""
param *.node[*].veinsmobility.x 0
param *.node[*].veinsmobility.y 0
param *.node[*].veinsmobility.z 1.895
param *.node[*].veinsmobilityType "\"symulacja.veins.modules.mobility.traci.TraCIMobility\""
param *.playgroundSizeX 9000m
param *.playgroundSizeY 9000m
param *.playgroundSizeZ 50m
param *.rsu[*].appl.beaconInterval 1s
param *.rsu[*].appl.beaconPriority 3
param *.rsu[*].appl.dataOnSch false
param *.rsu[*].appl.dataPriority 2
param *.rsu[*].appl.debug false
param *.rsu[*].appl.headerLength "256 bit"
param *.rsu[*].appl.maxOffset 0.005s
param *.rsu[*].appl.sendBeacons false
param *.rsu[*].appl.sendData false
param *.rsu[*].appl.sendVoIP false
param *.rsu[*].applType "\"SymRSU11p\""
param *.rsu[0].mobility.x 2160
param *.rsu[0].mobility.y 3100
param *.rsu[0].mobility.z 3
param *.world.use2D false
param *.world.useTorus false

vector 14  SymScenerio.rsu[0].nic.mac1609_4  "Interwały kanałów"  ETV
vector 23  SymScenerio.node[0].veinsmobility  posx  ETV
vector 24  SymScenerio.node[0].veinsmobility  posy  ETV
vector 22  SymScenerio.node[0].nic.mac1609_4  "Interwały kanałów"  ETV
vector 25  SymScenerio.node[0].veinsmobility  speed  ETV
vector 26  SymScenerio.node[0].veinsmobility  acceleration  ETV
vector 27  SymScenerio.node[0].veinsmobility  co2emission  ETV
vector 15  SymScenerio.node[0].appl  "TX Packets"  ETV
vector 16  SymScenerio.node[0].appl  "TX Total"  ETV
vector 17  SymScenerio.node[0].appl  Pakietyzacja  ETV
vector 5  SymScenerio.rsu[0].appl  nodeALL:vector  ETV
attr source  nodeALL
attr title  "Opoznienia ALL, vector"
vector 9  SymScenerio.rsu[0].appl  "RX Packet"  ETV
vector 0  SymScenerio.rsu[0].appl  node0:vector  ETV
attr source  node0
attr title  "Opoznienia node0, vector"
vector 36  SymScenerio.node[1].veinsmobility  posx  ETV
vector 37  SymScenerio.node[1].veinsmobility  posy  ETV
vector 35  SymScenerio.node[1].nic.mac1609_4  "Interwały kanałów"  ETV
vector 28  SymScenerio.node[1].appl  "TX Packets"  ETV
vector 29  SymScenerio.node[1].appl  "TX Total"  ETV
vector 30  SymScenerio.node[1].appl  Pakietyzacja  ETV
vector 1  SymScenerio.rsu[0].appl  node1:vector  ETV
attr source  node1
attr title  "Opoznienia node1, vector"
vector 38  SymScenerio.node[1].veinsmobility  speed  ETV
vector 39  SymScenerio.node[1].veinsmobility  acceleration  ETV
vector 40  SymScenerio.node[1].veinsmobility  co2emission  ETV
vector 49  SymScenerio.node[2].veinsmobility  posx  ETV
vector 50  SymScenerio.node[2].veinsmobility  posy  ETV
vector 48  SymScenerio.node[2].nic.mac1609_4  "Interwały kanałów"  ETV
vector 51  SymScenerio.node[2].veinsmobility  speed  ETV
vector 52  SymScenerio.node[2].veinsmobility  acceleration  ETV
vector 53  SymScenerio.node[2].veinsmobility  co2emission  ETV
vector 41  SymScenerio.node[2].appl  "TX Packets"  ETV
vector 42  SymScenerio.node[2].appl  "TX Total"  ETV
vector 43  SymScenerio.node[2].appl  Pakietyzacja  ETV
vector 2  SymScenerio.rsu[0].appl  node2:vector  ETV
attr source  node2
attr title  "Opoznienia node2, vector"
vector 62  SymScenerio.node[3].veinsmobility  posx  ETV
vector 63  SymScenerio.node[3].veinsmobility  posy  ETV
vector 61  SymScenerio.node[3].nic.mac1609_4  "Interwały kanałów"  ETV
vector 64  SymScenerio.node[3].veinsmobility  speed  ETV
vector 65  SymScenerio.node[3].veinsmobility  acceleration  ETV
vector 66  SymScenerio.node[3].veinsmobility  co2emission  ETV
vector 54  SymScenerio.node[3].appl  "TX Packets"  ETV
vector 55  SymScenerio.node[3].appl  "TX Total"  ETV
vector 56  SymScenerio.node[3].appl  Pakietyzacja  ETV
vector 3  SymScenerio.rsu[0].appl  node3:vector  ETV
attr source  node3
attr title  "Opoznienia node3, vector"
vector 75  SymScenerio.node[4].veinsmobility  posx  ETV
vector 76  SymScenerio.node[4].veinsmobility  posy  ETV
vector 74  SymScenerio.node[4].nic.mac1609_4  "Interwały kanałów"  ETV
vector 77  SymScenerio.node[4].veinsmobility  speed  ETV
vector 67  SymScenerio.node[4].appl  "TX Packets"  ETV
vector 68  SymScenerio.node[4].appl  "TX Total"  ETV
vector 69  SymScenerio.node[4].appl  Pakietyzacja  ETV
vector 4  SymScenerio.rsu[0].appl  node4:vector  ETV
attr source  node4
attr title  "Opoznienia node4, vector"
vector 78  SymScenerio.node[4].veinsmobility  acceleration  ETV
vector 79  SymScenerio.node[4].veinsmobility  co2emission  ETV
17	27	0.594205594994	1.002
17	45	0.644205594994	1.002
17	62	0.694205594994	1.002
17	80	0.744205594994	1.002
17	97	0.794205594994	1.002
17	115	0.844205594994	1.002
17	132	0.894205594994	1.002
17	150	0.944205594994	1.002
17	167	0.994205594994	1.002
17	185	1.044205594994	1.002
17	202	1.094205594994	1.002
17	220	1.144205594994	1.002
17	237	1.194205594994	1.002
17	255	1.244205594994	1.002
17	272	1.294205594994	1.002
17	290	1.344205594994	1.002
17	307	1.394205594994	1.002
17	325	1.444205594994	1.002
17	342	1.494205594994	1.002
17	360	1.544205594994	1.002
17	377	1.594205594994	1.002
17	395	1.644205594994	1.002
17	412	1.694205594994	1.002
17	430	1.744205594994	1.002
17	447	1.794205594994	1.002
17	465	1.844205594994	1.002
17	482	1.894205594994	1.002
17	500	1.944205594994	1.002
17	517	1.994205594994	1.002
17	535	2.044205594994	1.002
17	552	2.094205594994	1.002
17	570	2.144205594994	1.002
17	587	2.194205594994	1.002
17	605	2.244205594994	1.002
17	622	2.294205594994	1.002
17	640	2.344205594994	1.002
17	657	2.394205594994	1.002
17	675	2.444205594994	1.002
17	692	2.494205594994	1.002
17	710	2.544205594994	1.002
17	727	2.594205594994	1.002
17	745	2.644205594994	1.002
17	762	2.694205594994	1.002
17	780	2.744205594994	1.002
17	797	2.794205594994	1.002
17	815	2.844205594994	1.002
17	832	2.894205594994	1.002
17	850	2.944205594994	1.002
17	867	2.994205594994	1.002
17	885	3.044205594994	1.002
17	902	3.094205594994	1.002
17	920	3.144205594994	1.002
17	965	3.194205594994	1.002
17	992	3.244205594994	1.002
17	1056	3.294205594994	1.002
17	1083	3.344205594994	1.002
17	1147	3.394205594994	1.002
17	1174	3.444205594994	1.002
17	1238	3.494205594994	1.002
17	1265	3.544205594994	1.002
17	1329	3.594205594994	1.002
17	1356	3.644205594994	1.002
17	1420	3.694205594994	1.002
17	1447	3.744205594994	1.002
17	1511	3.794205594994	1.002
17	1538	3.844205594994	1.002
17	1602	3.894205594994	1.002
17	1629	3.944205594994	1.002
17	1693	3.994205594994	1.002
17	1720	4.044205594994	1.002
17	1784	4.094205594994	1.002
17	1811	4.144205594994	1.002
17	1875	4.194205594994	1.002
17	1902	4.244205594994	1.002
17	1966	4.294205594994	1.002
17	1993	4.344205594994	1.002
17	2057	4.394205594994	1.002
17	2084	4.444205594994	1.002
17	2148	4.494205594994	1.002
17	2175	4.544205594994	1.002
17	2239	4.594205594994	1.002
17	2266	4.644205594994	1.002
17	2330	4.694205594994	1.002
17	2357	4.744205594994	1.002
17	2421	4.794205594994	1.002
17	2448	4.844205594994	1.002
17	2512	4.894205594994	1.002
17	2539	4.944205594994	1.002
17	2603	4.994205594994	1.002
17	2630	5.044205594994	1.002
17	2694	5.094205594994	1.002
17	2721	5.144205594994	1.002
17	2785	5.194205594994	1.002
17	2812	5.244205594994	1.002
17	2876	5.294205594994	1.002
17	2903	5.344205594994	1.002
17	2967	5.394205594994	1.002
17	2994	5.444205594994	1.002
17	3058	5.494205594994	1.002
17	3085	5.544205594994	1.002
17	3149	5.594205594994	1.002
17	3176	5.644205594994	1.002
17	3240	5.694205594994	1.002
17	3267	5.744205594994	1.002
17	3331	5.794205594994	1.002
17	3358	5.844205594994	1.002
17	3422	5.894205594994	1.002
17	3449	5.944205594994	1.002
17	3513	5.994205594994	1.002
17	3540	6.044205594994	1.002
17	3604	6.094205594994	1.002
17	3631	6.144205594994	1.002
17	3714	6.194205594994	1.002
17	3748	6.244205594994	1.002
17	3831	6.294205594994	1.002
17	3865	6.344205594994	1.002
17	3975	6.394205594994	1.002
17	4011	6.444205594994	1.002
17	4146	6.494205594994	1.002
17	4182	6.544205594994	1.002
17	4317	6.594205594994	1.002
17	4353	6.644205594994	1.002
17	4488	6.694205594994	1.002
17	4524	6.744205594994	1.002
17	4659	6.794205594994	1.002
17	4695	6.844205594994	1.002
17	4830	6.894205594994	1.002
17	4866	6.944205594994	1.002
17	5001	6.994205594994	1.002
17	5037	7.044205594994	1.002
17	5172	7.094205594994	1.002
17	5208	7.144205594994	1.002
17	5333	7.194205594994	1.002
17	5369	7.244205594994	1.002
17	5504	7.294205594994	1.002
17	5540	7.344205594994	1.002
17	5675	7.394205594994	1.002
17	5711	7.444205594994	1.002
17	5846	7.494205594994	1.002
17	5882	7.544205594994	1.002
17	6007	7.594205594994	1.002
17	6043	7.644205594994	1.002
17	6178	7.694205594994	1.002
17	6214	7.744205594994	1.002
17	6349	7.794205594994	1.002
17	6385	7.844205594994	1.002
17	6520	7.894205594994	1.002
17	6556	7.944205594994	1.002
17	6691	7.994205594994	1.002
17	6727	8.044205594994	1.002
17	6862	8.094205594994	1.002
17	6898	8.144205594994	1.002
17	7033	8.194205594994	1.002
17	7069	8.244205594994	1.002
17	7204	8.294205594994	1.002
17	7240	8.344205594994	1.002
17	7365	8.394205594994	1.002
17	7401	8.444205594994	1.002
17	7536	8.494205594994	1.002
17	7572	8.544205594994	1.002
17	7707	8.594205594994	1.002
17	7743	8.644205594994	1.002
17	7878	8.694205594994	1.002
17	7914	8.744205594994	1.002
17	8049	8.794205594994	1.002
17	8085	8.844205594994	1.002
17	8210	8.894205594994	1.002
17	8246	8.944205594994	1.002
17	8381	8.994205594994	1.002
17	8417	9.044205594994	1.002
17	8552	9.094205594994	1.002
17	8588	9.144205594994	1.002
17	8754	9.194205594994	1.002
17	8797	9.244205594994	1.002
17	8950	9.294205594994	1.002
17	8993	9.344205594994	1.002
17	9146	9.394205594994	1.002
17	9189	9.444205594994	1.002
17	9342	9.494205594994	1.002
17	9385	9.544205594994	1.002
17	9539	9.594205594994	1.002
17	9582	9.644205594994	1.002
17	9748	9.694205594994	1.002
17	9791	9.744205594994	1.002
17	9945	9.794205594994	1.002
17	9988	9.844205594994	1.002
17	10154	9.894205594994	1.002
17	10197	9.944205594994	1.002
17	10396	9.994205594994	1.002
17	10441	10.044205594994	1.002
17	10671	10.094205594994	1.002
17	10716	10.144205594994	1.002
17	10933	10.194205594994	1.002
17	10978	10.244205594994	1.002
17	11186	10.294205594994	1.002
17	11231	10.344205594994	1.002
17	11439	10.394205594994	1.002
17	11484	10.444205594994	1.002
17	11714	10.494205594994	1.002
17	11759	10.544205594994	1.002
17	11967	10.594205594994	1.002
17	12012	10.644205594994	1.002
17	12242	10.694205594994	1.002
17	12287	10.744205594994	1.002
17	12517	10.794205594994	1.002
17	12562	10.844205594994	1.002
17	12792	10.894205594994	1.002
17	12837	10.944205594994	1.002
17	13067	10.994205594994	1.002
17	13112	11.044205594994	1.002
17	13329	11.094205594994	1.002
17	13374	11.144205594994	1.002
17	13604	11.194205594994	1.002
17	13649	11.244205594994	1.002
17	13879	11.294205594994	1.002
17	13924	11.344205594994	1.002
17	14141	11.394205594994	1.002
17	14186	11.444205594994	1.002
17	14416	11.494205594994	1.002
17	14461	11.544205594994	1.002
17	14691	11.594205594994	1.002
17	14736	11.644205594994	1.002
17	14966	11.694205594994	1.002
17	15011	11.744205594994	1.002
17	15228	11.794205594994	1.002
17	15273	11.844205594994	1.002
17	15490	11.894205594994	1.002
17	15535	11.944205594994	1.002
17	15765	11.994205594994	1.002
17	15810	12.044205594994	1.002
17	16040	12.094205594994	1.002
17	16085	12.144205594994	1.002
17	16358	12.194205594994	1.002
17	16410	12.244205594994	1.002
17	16722	12.294205594994	1.002
17	16776	12.344205594994	1.002
17	17109	12.394205594994	1.002
17	17163	12.444205594994	1.002
17	17496	12.494205594994	1.002
17	17550	12.544205594994	1.002
17	17867	12.594205594994	1.002
17	17921	12.644205594994	1.002
17	18254	12.694205594994	1.002
17	18308	12.744205594994	1.002
17	18641	12.794205594994	1.002
17	18695	12.844205594994	1.002
17	19013	12.894205594994	1.002
17	19067	12.944205594994	1.002
17	19400	12.994205594994	1.002
17	19454	13.044205594994	1.002
17	19787	13.094205594994	1.002
17	19841	13.144205594994	1.002
17	20163	13.194205594994	1.002
17	20217	13.244205594994	1.002
17	20566	13.294205594994	1.002
17	20620	13.344205594994	1.002
17	20969	13.394205594994	1.002
17	21023	13.444205594994	1.002
17	21356	13.494205594994	1.002
17	21410	13.544205594994	1.002
17	21743	13.594205594994	1.002
17	21797	13.644205594994	1.002
17	22131	13.694205594994	1.002
17	22185	13.744205594994	1.002
17	22518	13.794205594994	1.002
17	22572	13.844205594994	1.002
17	22905	13.894205594994	1.002
17	22959	13.944205594994	1.002
17	23292	13.994205594994	1.002
17	23346	14.044205594994	1.002
17	23663	14.094205594994	1.002
17	23717	14.144205594994	1.002
17	24035	14.194205594994	1.002
17	24089	14.244205594994	1.002
17	24411	14.294205594994	1.002
17	24465	14.344205594994	1.002
17	24814	14.394205594994	1.002
17	24868	14.444205594994	1.002
17	25190	14.494205594994	1.002
17	25244	14.544205594994	1.002
17	25566	14.594205594994	1.002
17	25620	14.644205594994	1.002
17	25942	14.694205594994	1.002
17	25996	14.744205594994	1.002
17	26318	14.794205594994	1.002
17	26372	14.844205594994	1.002
17	26705	14.894205594994	1.002
17	26759	14.944205594994	1.002
17	27092	14.994205594994	1.002
17	27146	15.044205594994	1.002
17	27463	15.094205594994	1.002
17	27517	15.144205594994	1.002
17	27839	15.194205594994	1.002
17	27893	15.244205594994	1.002
17	28226	15.294205594994	1.002
17	28280	15.344205594994	1.002
17	28613	15.394205594994	1.002
17	28667	15.444205594994	1.002
17	28984	15.494205594994	1.002
17	29038	15.544205594994	1.002
17	29360	15.594205594994	1.002
17	29414	15.644205594994	1.002
17	29763	15.694205594994	1.002
17	29817	15.744205594994	1.002
17	30150	15.794205594994	1.002
17	30204	15.844205594994	1.002
17	30537	15.894205594994	1.002
17	30591	15.944205594994	1.002
17	30924	15.994205594994	1.002
17	30978	16.044205594994	1.002
17	31311	16.094205594994	1.002
17	31365	16.144205594994	1.002
17	31698	16.194205594994	1.002
17	31752	16.244205594994	1.002
17	32085	16.294205594994	1.002
17	32139	16.344205594994	1.002
17	32456	16.394205594994	1.002
17	32510	16.444205594994	1.002
17	32843	16.494205594994	1.002
17	32897	16.544205594994	1.002
17	33219	16.594205594994	1.002
17	33273	16.644205594994	1.002
17	33606	16.694205594994	1.002
17	33660	16.744205594994	1.002
17	33993	16.794205594994	1.002
17	34047	16.844205594994	1.002
17	34380	16.894205594994	1.002
17	34434	16.944205594994	1.002
17	34783	16.994205594994	1.002
17	34837	17.044205594994	1.002
17	35159	17.094205594994	1.002
17	35213	17.144205594994	1.002
17	35546	17.194205594994	1.002
17	35600	17.244205594994	1.002
17	35933	17.294205594994	1.002
17	35987	17.344205594994	1.002
17	36320	17.394205594994	1.002
17	36374	17.444205594994	1.002
17	36707	17.494205594994	1.002
17	36761	17.544205594994	1.002
17	37094	17.594205594994	1.002
17	37148	17.644205594994	1.002
17	37481	17.694205594994	1.002
17	37535	17.744205594994	1.002
17	37868	17.794205594994	1.002
17	37922	17.844205594994	1.002
17	38255	17.894205594994	1.002
17	38309	17.944205594994	1.002
17	38631	17.994205594994	1.002
17	38685	18.044205594994	1.002
17	39002	18.094205594994	1.002
17	39056	18.144205594994	1.002
17	39389	18.194205594994	1.002
17	39443	18.244205594994	1.002
17	39776	18.294205594994	1.002
17	39830	18.344205594994	1.002
17	40152	18.394205594994	1.002
17	40206	18.444205594994	1.002
17	40539	18.494205594994	1.002
17	40593	18.544205594994	1.002
17	40915	18.594205594994	1.002
17	40969	18.644205594994	1.002
17	41302	18.694205594994	1.002
17	41356	18.744205594994	1.002
17	41689	18.794205594994	1.002
17	41743	18.844205594994	1.002
17	42076	18.894205594994	1.002
17	42130	18.944205594994	1.002
17	42452	18.994205594994	1.002
17	42506	19.044205594994	1.002
17	42839	19.094205594994	1.002
17	42893	19.144205594994	1.002
17	43226	19.194205594994	1.002
17	43280	19.244205594994	1.002
17	43613	19.294205594994	1.002
17	43667	19.344205594994	1.002
17	43989	19.394205594994	1.002
17	44043	19.444205594994	1.002
17	44376	19.494205594994	1.002
17	44430	19.544205594994	1.002
17	44763	19.594205594994	1.002
17	44817	19.644205594994	1.002
17	45150	19.694205594994	1.002
17	45204	19.744205594994	1.002
17	45537	19.794205594994	1.002
17	45591	19.844205594994	1.002
17	45908	19.894205594994	1.002
17	45962	19.944205594994	1.002
17	46295	19.994205594994	1.002
17	46349	20.044205594994	1.002
17	46671	20.094205594994	1.002
17	46725	20.144205594994	1.002
17	47047	20.194205594994	1.002
17	47101	20.244205594994	1.002
17	47450	20.294205594994	1.002
17	47504	20.344205594994	1.002
17	47837	20.394205594994	1.002
17	47891	20.444205594994	1.002
17	48224	20.494205594994	1.002
17	48278	20.544205594994	1.002
17	48627	20.594205594994	1.002
17	48681	20.644205594994	1.002
17	49003	20.694205594994	1.002
17	49057	20.744205594994	1.002
17	49390	20.794205594994	1.002
17	49444	20.844205594994	1.002
17	49777	20.894205594994	1.002
17	49831	20.944205594994	1.002
17	50153	20.994205594994	1.002
17	50207	21.044205594994	1.002
17	50529	21.094205594994	1.002
17	50583	21.144205594994	1.002
17	50916	21.194205594994	1.002
17	50970	21.244205594994	1.002
17	51319	21.294205594994	1.002
17	51373	21.344205594994	1.002
17	51706	21.394205594994	1.002
17	51760	21.444205594994	1.002
17	52109	21.494205594994	1.002
17	52163	21.544205594994	1.002
17	52496	21.594205594994	1.002
17	52550	21.644205594994	1.002
17	52883	21.694205594994	1.002
17	52937	21.744205594994	1.002
17	53270	21.794205594994	1.002
17	53324	21.844205594994	1.002
17	53646	21.894205594994	1.002
17	53700	21.944205594994	1.002
17	54017	21.994205594994	1.002
17	54071	22.044205594994	1.002
17	54393	22.094205594994	1.002
17	54447	22.144205594994	1.002
17	54769	22.194205594994	1.002
17	54823	22.244205594994	1.002
17	55134	22.294205594994	1.002
17	55188	22.344205594994	1.002
17	55521	22.394205594994	1.002
17	55575	22.444205594994	1.002
17	55897	22.494205594994	1.002
17	55951	22.544205594994	1.002
17	56300	22.594205594994	1.002
17	56354	22.644205594994	1.002
17	56687	22.694205594994	1.002
17	56741	22.744205594994	1.002
17	57058	22.794205594994	1.002
17	57112	22.844205594994	1.002
17	57445	22.894205594994	1.002
17	57499	22.944205594994	1.002
17	57832	22.994205594994	1.002
17	57886	23.044205594994	1.002
17	58208	23.094205594994	1.002
17	58262	23.144205594994	1.002
17	58579	23.194205594994	1.002
17	58633	23.244205594994	1.002
17	58966	23.294205594994	1.002
17	59020	23.344205594994	1.002
17	59353	23.394205594994	1.002
17	59407	23.444205594994	1.002
17	59729	23.494205594994	1.002
17	59783	23.544205594994	1.002
17	60116	23.594205594994	1.002
17	60170	23.644205594994	1.002
17	60503	23.694205594994	1.002
17	60557	23.744205594994	1.002
17	60890	23.794205594994	1.002
17	60944	23.844205594994	1.002
17	61255	23.894205594994	1.002
17	61309	23.944205594994	1.002
17	61626	23.994205594994	1.002
17	61680	24.044205594994	1.002
17	62013	24.094205594994	1.002
17	62067	24.144205594994	1.002
17	62400	24.194205594994	1.002
17	62454	24.244205594994	1.002
17	62787	24.294205594994	1.002
17	62841	24.344205594994	1.002
17	63190	24.394205594994	1.002
17	63244	24.444205594994	1.002
17	63577	24.494205594994	1.002
17	63631	24.544205594994	1.002
17	63964	24.594205594994	1.002
17	64018	24.644205594994	1.002
17	64351	24.694205594994	1.002
17	64405	24.744205594994	1.002
17	64738	24.794205594994	1.002
17	64792	24.844205594994	1.002
17	65125	24.894205594994	1.002
17	65179	24.944205594994	1.002
17	65512	24.994205594994	1.002
17	65566	25.044205594994	1.002
17	65899	25.094205594994	1.002
17	65953	25.144205594994	1.002
17	66270	25.194205594994	1.002
17	66324	25.244205594994	1.002
17	66657	25.294205594994	1.002
17	66711	25.344205594994	1.002
17	67033	25.394205594994	1.002
17	67087	25.444205594994	1.002
17	67404	25.494205594994	1.002
17	67458	25.544205594994	1.002
17	67791	25.594205594994	1.002
17	67845	25.644205594994	1.002
17	68178	25.694205594994	1.002
17	68232	25.744205594994	1.002
17	68565	25.794205594994	1.002
17	68619	25.844205594994	1.002
17	68930	25.894205594994	1.002
17	68984	25.944205594994	1.002
17	69306	25.994205594994	1.002
17	69360	26.044205594994	1.002
17	69677	26.094205594994	1.002
17	69731	26.144205594994	1.002
17	70080	26.194205594994	1.002
17	70134	26.244205594994	1.002
17	70483	26.294205594994	1.002
17	70537	26.344205594994	1.002
17	70886	26.394205594994	1.002
17	70940	26.444205594994	1.002
17	71273	26.494205594994	1.002
17	71327	26.544205594994	1.002
17	71644	26.594205594994	1.002
17	71698	26.644205594994	1.002
17	72047	26.694205594994	1.002
17	72101	26.744205594994	1.002
17	72450	26.794205594994	1.002
17	72504	26.844205594994	1.002
17	72837	26.894205594994	1.002
17	72891	26.944205594994	1.002
17	73224	26.994205594994	1.002
17	73278	27.044205594994	1.002
17	73611	27.094205594994	1.002
17	73665	27.144205594994	1.002
17	73987	27.194205594994	1.002
17	74041	27.244205594994	1.002
17	74363	27.294205594994	1.002
17	74417	27.344205594994	1.002
17	74734	27.394205594994	1.002
17	74788	27.444205594994	1.002
17	75137	27.494205594994	1.002
17	75191	27.544205594994	1.002
17	75540	27.594205594994	1.002
17	75594	27.644205594994	1.002
17	75927	27.694205594994	1.002
17	75981	27.744205594994	1.002
17	76303	27.794205594994	1.002
17	76357	27.844205594994	1.002
17	76706	27.894205594994	1.002
17	76760	27.944205594994	1.002
17	77071	27.994205594994	1.002
17	77125	28.044205594994	1.002
17	77458	28.094205594994	1.002
17	77512	28.144205594994	1.002
17	77845	28.194205594994	1.002
17	77899	28.244205594994	1.002
17	78232	28.294205594994	1.002
17	78286	28.344205594994	1.002
17	78619	28.394205594994	1.002
17	78673	28.444205594994	1.002
17	78995	28.494205594994	1.002
17	79049	28.544205594994	1.002
17	79382	28.594205594994	1.002
17	79436	28.644205594994	1.002
17	79753	28.694205594994	1.002
17	79807	28.744205594994	1.002
17	80140	28.794205594994	1.002
17	80194	28.844205594994	1.002
17	80505	28.894205594994	1.002
17	80559	28.944205594994	1.002
17	80892	28.994205594994	1.002
17	80946	29.044205594994	1.002
17	81279	29.094205594994	1.002
17	81333	29.144205594994	1.002
17	81666	29.194205594994	1.002
17	81720	29.244205594994	1.002
17	82037	29.294205594994	1.002
17	82091	29.344205594994	1.002
17	82424	29.394205594994	1.002
17	82478	29.444205594994	1.002
17	82811	29.494205594994	1.002
17	82865	29.544205594994	1.002
17	83187	29.594205594994	1.002
17	83241	29.644205594994	1.002
17	83563	29.694205594994	1.002
17	83617	29.744205594994	1.002
17	83950	29.794205594994	1.002
17	84004	29.844205594994	1.002
17	84321	29.894205594994	1.002
17	84375	29.944205594994	1.002
17	84708	29.994205594994	1.002
17	84762	30.044205594994	1.002
17	85079	30.094205594994	1.002
17	85133	30.144205594994	1.002
17	85466	30.194205594994	1.002
17	85520	30.244205594994	1.002
17	85853	30.294205594994	1.002
17	85907	30.344205594994	1.002
17	86240	30.394205594994	1.002
17	86294	30.444205594994	1.002
17	86611	30.494205594994	1.002
17	86665	30.544205594994	1.002
17	86998	30.594205594994	1.002
17	87052	30.644205594994	1.002
17	87385	30.694205594994	1.002
17	87439	30.744205594994	1.002
17	87761	30.794205594994	1.002
17	87815	30.844205594994	1.002
17	88148	30.894205594994	1.002
17	88202	30.944205594994	1.002
17	88535	30.994205594994	1.002
17	88589	31.044205594994	1.002
17	88906	31.094205594994	1.002
17	88960	31.144205594994	1.002
17	89309	31.194205594994	1.002
17	89363	31.244205594994	1.002
17	89680	31.294205594994	1.002
17	89734	31.344205594994	1.002
17	90067	31.394205594994	1.002
17	90121	31.444205594994	1.002
17	90438	31.494205594994	1.002
17	90492	31.544205594994	1.002
17	90825	31.594205594994	1.002
17	90879	31.644205594994	1.002
17	91201	31.694205594994	1.002
17	91255	31.744205594994	1.002
17	91588	31.794205594994	1.002
17	91642	31.844205594994	1.002
17	91964	31.894205594994	1.002
17	92018	31.944205594994	1.002
17	92340	31.994205594994	1.002
17	92394	32.044205594994	1.002
17	92743	32.094205594994	1.002
17	92797	32.144205594994	1.002
17	93114	32.194205594994	1.002
17	93168	32.244205594994	1.002
17	93490	32.294205594994	1.002
17	93544	32.344205594994	1.002
17	93877	32.394205594994	1.002
17	93931	32.444205594994	1.002
17	94264	32.494205594994	1.002
17	94318	32.544205594994	1.002
17	94651	32.594205594994	1.002
17	94705	32.644205594994	1.002
17	95022	32.694205594994	1.002
17	95076	32.744205594994	1.002
17	95409	32.794205594994	1.002
17	95463	32.844205594994	1.002
17	95796	32.894205594994	1.002
17	95850	32.944205594994	1.002
17	96172	32.994205594994	1.002
17	96226	33.044205594994	1.002
17	96559	33.094205594994	1.002
17	96613	33.144205594994	1.002
17	96930	33.194205594994	1.002
17	96984	33.244205594994	1.002
17	97317	33.294205594994	1.002
17	97371	33.344205594994	1.002
17	97704	33.394205594994	1.002
17	97758	33.444205594994	1.002
17	98107	33.494205594994	1.002
17	98161	33.544205594994	1.002
17	98494	33.594205594994	1.002
17	98548	33.644205594994	1.002
17	98897	33.694205594994	1.002
17	98951	33.744205594994	1.002
17	99300	33.794205594994	1.002
17	99354	33.844205594994	1.002
17	99687	33.894205594994	1.002
17	99741	33.944205594994	1.002
17	100058	33.994205594994	1.002
17	100112	34.044205594994	1.002
17	100434	34.094205594994	1.002
17	100488	34.144205594994	1.002
17	100810	34.194205594994	1.002
17	100864	34.244205594994	1.002
17	101197	34.294205594994	1.002
17	101251	34.344205594994	1.002
17	101584	34.394205594994	1.002
17	101638	34.444205594994	1.002
17	101971	34.494205594994	1.002
17	102025	34.544205594994	1.002
17	102347	34.594205594994	1.002
17	102401	34.644205594994	1.002
17	102734	34.694205594994	1.002
17	102788	34.744205594994	1.002
17	103105	34.794205594994	1.002
17	103159	34.844205594994	1.002
17	103492	34.894205594994	1.002
17	103546	34.944205594994	1.002
17	103879	34.994205594994	1.002
17	103933	35.044205594994	1.002
17	104266	35.094205594994	1.002
17	104320	35.144205594994	1.002
17	104653	35.194205594994	1.002
17	104707	35.244205594994	1.002
17	105040	35.294205594994	1.002
17	105094	35.344205594994	1.002
17	105416	35.394205594994	1.002
17	105470	35.444205594994	1.002
17	105792	35.494205594994	1.002
17	105846	35.544205594994	1.002
17	106179	35.594205594994	1.002
17	106233	35.644205594994	1.002
17	106555	35.694205594994	1.002
17	106609	35.744205594994	1.002
17	106931	35.794205594994	1.002
17	106985	35.844205594994	1.002
17	107318	35.894205594994	1.002
17	107372	35.944205594994	1.002
17	107705	35.994205594994	1.002
17	107759	36.044205594994	1.002
17	108092	36.094205594994	1.002
17	108146	36.144205594994	1.002
17	108479	36.194205594994	1.002
17	108533	36.244205594994	1.002
17	108850	36.294205594994	1.002
17	108904	36.344205594994	1.002
17	109237	36.394205594994	1.002
17	109291	36.444205594994	1.002
17	109624	36.494205594994	1.002
17	109678	36.544205594994	1.002
17	110000	36.594205594994	1.002
17	110054	36.644205594994	1.002
17	110387	36.694205594994	1.002
17	110441	36.744205594994	1.002
17	110774	36.794205594994	1.002
17	110828	36.844205594994	1.002
17	111161	36.894205594994	1.002
17	111215	36.944205594994	1.002
17	111548	36.994205594994	1.002
17	111602	37.044205594994	1.002
17	111919	37.094205594994	1.002
17	111973	37.144205594994	1.002
17	112306	37.194205594994	1.002
17	112360	37.244205594994	1.002
17	112693	37.294205594994	1.002
17	112747	37.344205594994	1.002
17	113080	37.394205594994	1.002
17	113134	37.444205594994	1.002
17	113451	37.494205594994	1.002
17	113505	37.544205594994	1.002
17	113838	37.594205594994	1.002
17	113892	37.644205594994	1.002
17	114225	37.694205594994	1.002
17	114279	37.744205594994	1.002
17	114612	37.794205594994	1.002
17	114666	37.844205594994	1.002
17	114999	37.894205594994	1.002
17	115053	37.944205594994	1.002
17	115375	37.994205594994	1.002
17	115429	38.044205594994	1.002
17	115762	38.094205594994	1.002
17	115816	38.144205594994	1.002
17	116149	38.194205594994	1.002
17	116203	38.244205594994	1.002
17	116520	38.294205594994	1.002
17	116574	38.344205594994	1.002
17	116896	38.394205594994	1.002
17	116950	38.444205594994	1.002
17	117283	38.494205594994	1.002
17	117337	38.544205594994	1.002
17	117654	38.594205594994	1.002
17	117708	38.644205594994	1.002
17	118041	38.694205594994	1.002
17	118095	38.744205594994	1.002
17	118428	38.794205594994	1.002
17	118482	38.844205594994	1.002
17	118815	38.894205594994	1.002
17	118869	38.944205594994	1.002
17	119202	38.994205594994	1.002
17	119256	39.044205594994	1.002
17	119589	39.094205594994	1.002
17	119643	39.144205594994	1.002
17	119960	39.194205594994	1.002
17	120014	39.244205594994	1.002
17	120331	39.294205594994	1.002
17	120385	39.344205594994	1.002
17	120707	39.394205594994	1.002
17	120761	39.444205594994	1.002
17	121094	39.494205594994	1.002
17	121148	39.544205594994	1.002
17	121470	39.594205594994	1.002
17	121524	39.644205594994	1.002
17	121857	39.694205594994	1.002
17	121911	39.744205594994	1.002
17	122233	39.794205594994	1.002
17	122287	39.844205594994	1.002
17	122604	39.894205594994	1.002
17	122658	39.944205594994	1.002
17	122991	39.994205594994	1.002
17	123045	40.044205594994	1.002
17	123362	40.094205594994	1.002
17	123416	40.144205594994	1.002
17	123733	40.194205594994	1.002
17	123787	40.244205594994	1.002
17	124104	40.294205594994	1.002
17	124158	40.344205594994	1.002
17	124507	40.394205594994	1.002
17	124561	40.444205594994	1.002
17	124894	40.494205594994	1.002
17	124948	40.544205594994	1.002
17	125265	40.594205594994	1.002
17	125319	40.644205594994	1.002
17	125652	40.694205594994	1.002
17	125706	40.744205594994	1.002
17	126039	40.794205594994	1.002
17	126093	40.844205594994	1.002
17	126410	40.894205594994	1.002
17	126464	40.944205594994	1.002
17	126781	40.994205594994	1.002
17	126835	41.044205594994	1.002
17	127157	41.094205594994	1.002
17	127211	41.144205594994	1.002
17	127544	41.194205594994	1.002
17	127598	41.244205594994	1.002
17	127931	41.294205594994	1.002
17	127985	41.344205594994	1.002
17	128318	41.394205594994	1.002
17	128372	41.444205594994	1.002
17	128705	41.494205594994	1.002
17	128759	41.544205594994	1.002
17	129092	41.594205594994	1.002
17	129146	41.644205594994	1.002
17	129463	41.694205594994	1.002
17	129517	41.744205594994	1.002
17	129850	41.794205594994	1.002
17	129904	41.844205594994	1.002
17	130253	41.894205594994	1.002
17	130307	41.944205594994	1.002
17	130640	41.994205594994	1.002
17	130694	42.044205594994	1.002
17	131027	42.094205594994	1.002
17	131081	42.144205594994	1.002
17	131414	42.194205594994	1.002
17	131468	42.244205594994	1.002
17	131801	42.294205594994	1.002
17	131855	42.344205594994	1.002
17	132188	42.394205594994	1.002
17	132242	42.444205594994	1.002
17	132564	42.494205594994	1.002
17	132618	42.544205594994	1.002
17	132967	42.594205594994	1.002
17	133021	42.644205594994	1.002
17	133338	42.694205594994	1.002
17	133392	42.744205594994	1.002
17	133725	42.794205594994	1.002
17	133779	42.844205594994	1.002
17	134096	42.894205594994	1.002
17	134150	42.944205594994	1.002
17	134467	42.994205594994	1.002
17	134521	43.044205594994	1.002
17	134843	43.094205594994	1.002
17	134897	43.144205594994	1.002
17	135230	43.194205594994	1.002
17	135284	43.244205594994	1.002
17	135606	43.294205594994	1.002
17	135660	43.344205594994	1.002
17	135993	43.394205594994	1.002
17	136047	43.444205594994	1.002
17	136396	43.494205594994	1.002
17	136450	43.544205594994	1.002
17	136772	43.594205594994	1.002
17	136826	43.644205594994	1.002
17	137175	43.694205594994	1.002
17	137229	43.744205594994	1.002
17	137562	43.794205594994	1.002
17	137616	43.844205594994	1.002
17	137949	43.894205594994	1.002
17	138003	43.944205594994	1.002
17	138336	43.994205594994	1.002
17	138390	44.044205594994	1.002
17	138707	44.094205594994	1.002
17	138761	44.144205594994	1.002
17	139094	44.194205594994	1.002
17	139148	44.244205594994	1.002
17	139481	44.294205594994	1.002
17	139535	44.344205594994	1.002
17	139868	44.394205594994	1.002
17	139922	44.444205594994	1.002
17	140255	44.494205594994	1.002
17	140309	44.544205594994	1.002
17	140642	44.594205594994	1.002
17	140696	44.644205594994	1.002
17	141018	44.694205594994	1.002
17	141072	44.744205594994	1.002
17	141389	44.794205594994	1.002
17	141443	44.844205594994	1.002
17	141760	44.894205594994	1.002
17	141814	44.944205594994	1.002
17	142147	44.994205594994	1.002
17	142201	45.044205594994	1.002
17	142534	45.094205594994	1.002
17	142588	45.144205594994	1.002
17	142905	45.194205594994	1.002
17	142959	45.244205594994	1.002
17	143292	45.294205594994	1.002
17	143346	45.344205594994	1.002
17	143679	45.394205594994	1.002
17	143733	45.444205594994	1.002
17	144066	45.494205594994	1.002
17	144120	45.544205594994	1.002
17	144453	45.594205594994	1.002
17	144507	45.644205594994	1.002
17	144829	45.694205594994	1.002
17	144883	45.744205594994	1.002
17	145216	45.794205594994	1.002
17	145270	45.844205594994	1.002
17	145603	45.894205594994	1.002
17	145657	45.944205594994	1.002
17	145990	45.994205594994	1.002
17	146044	46.044205594994	1.002
17	146377	46.094205594994	1.002
17	146431	46.144205594994	1.002
17	146764	46.194205594994	1.002
17	146818	46.244205594994	1.002
17	147140	46.294205594994	1.002
17	147194	46.344205594994	1.002
17	147527	46.394205594994	1.002
17	147581	46.444205594994	1.002
17	147914	46.494205594994	1.002
17	147968	46.544205594994	1.002
17	148290	46.594205594994	1.002
17	148344	46.644205594994	1.002
17	148677	46.694205594994	1.002
17	148731	46.744205594994	1.002
17	149064	46.794205594994	1.002
17	149118	46.844205594994	1.002
17	149440	46.894205594994	1.002
17	149494	46.944205594994	1.002
17	149827	46.994205594994	1.002
17	149881	47.044205594994	1.002
17	150192	47.094205594994	1.002
17	150246	47.144205594994	1.002
17	150563	47.194205594994	1.002
17	150617	47.244205594994	1.002
17	150934	47.294205594994	1.002
17	150988	47.344205594994	1.002
17	151305	47.394205594994	1.002
17	151359	47.444205594994	1.002
17	151692	47.494205594994	1.002
17	151746	47.544205594994	1.002
17	152079	47.594205594994	1.002
17	152133	47.644205594994	1.002
17	152466	47.694205594994	1.002
17	152520	47.744205594994	1.002
17	152842	47.794205594994	1.002
17	152896	47.844205594994	1.002
17	153218	47.894205594994	1.002
17	153272	47.944205594994	1.002
17	153594	47.994205594994	1.002
17	153648	48.044205594994	1.002
17	153965	48.094205594994	1.002
17	154019	48.144205594994	1.002
17	154368	48.194205594994	1.002
17	154422	48.244205594994	1.002
17	154771	48.294205594994	1.002
17	154825	48.344205594994	1.002
17	155158	48.394205594994	1.002
17	155212	48.444205594994	1.002
17	155534	48.494205594994	1.002
17	155588	48.544205594994	1.002
17	155921	48.594205594994	1.002
17	155975	48.644205594994	1.002
17	156308	48.694205594994	1.002
17	156362	48.744205594994	1.002
17	156695	48.794205594994	1.002
17	156749	48.844205594994	1.002
17	157082	48.894205594994	1.002
17	157136	48.944205594994	1.002
17	157453	48.994205594994	1.002
17	157507	49.044205594994	1.002
17	157840	49.094205594994	1.002
17	157894	49.144205594994	1.002
17	158227	49.194205594994	1.002
17	158281	49.244205594994	1.002
17	158630	49.294205594994	1.002
17	158684	49.344205594994	1.002
17	159017	49.394205594994	1.002
17	159071	49.444205594994	1.002
17	159393	49.494205594994	1.002
17	159447	49.544205594994	1.002
17	159780	49.594205594994	1.002
17	159834	49.644205594994	1.002
17	160183	49.694205594994	1.002
17	160237	49.744205594994	1.002
17	160570	49.794205594994	1.002
17	160624	49.844205594994	1.002
17	160957	49.894205594994	1.002
17	161011	49.944205594994	1.002
17	161328	49.994205594994	1.002
17	161382	50.044205594994	1.002
17	161699	50.094205594994	1.002
17	161753	50.144205594994	1.002
17	162075	50.194205594994	1.002
17	162129	50.244205594994	1.002
17	162462	50.294205594994	1.002
17	162516	50.344205594994	1.002
17	162827	50.394205594994	1.002
17	162881	50.444205594994	1.002
17	163198	50.494205594994	1.002
17	163252	50.544205594994	1.002
17	163585	50.594205594994	1.002
17	163639	50.644205594994	1.002
17	163972	50.694205594994	1.002
17	164026	50.744205594994	1.002
17	164359	50.794205594994	1.002
17	164413	50.844205594994	1.002
17	164730	50.894205594994	1.002
17	164784	50.944205594994	1.002
17	165117	50.994205594994	1.002
17	165171	51.044205594994	1.002
17	165520	51.094205594994	1.002
17	165574	51.144205594994	1.002
17	165907	51.194205594994	1.002
17	165961	51.244205594994	1.002
17	166278	51.294205594994	1.002
17	166332	51.344205594994	1.002
17	166665	51.394205594994	1.002
17	166719	51.444205594994	1.002
17	167052	51.494205594994	1.002
17	167106	51.544205594994	1.002
17	167428	51.594205594994	1.002
17	167482	51.644205594994	1.002
17	167804	51.694205594994	1.002
17	167858	51.744205594994	1.002
17	168207	51.794205594994	1.002
17	168261	51.844205594994	1.002
17	168594	51.894205594994	1.002
17	168648	51.944205594994	1.002
17	168970	51.994205594994	1.002
17	169024	52.044205594994	1.002
17	169357	52.094205594994	1.002
17	169411	52.144205594994	1.002
17	169760	52.194205594994	1.002
17	169814	52.244205594994	1.002
17	170147	52.294205594994	1.002
17	170201	52.344205594994	1.002
17	170523	52.394205594994	1.002
17	170577	52.444205594994	1.002
17	170926	52.494205594994	1.002
17	170980	52.544205594994	1.002
17	171313	52.594205594994	1.002
17	171367	52.644205594994	1.002
17	171716	52.694205594994	1.002
17	171770	52.744205594994	1.002
17	172119	52.794205594994	1.002
17	172173	52.844205594994	1.002
17	172506	52.894205594994	1.002
17	172560	52.944205594994	1.002
17	172893	52.994205594994	1.002
17	172947	53.044205594994	1.002
17	173280	53.094205594994	1.002
17	173334	53.144205594994	1.002
17	173683	53.194205594994	1.002
17	173737	53.244205594994	1.002
17	174059	53.294205594994	1.002
17	174113	53.344205594994	1.002
17	174435	53.394205594994	1.002
17	174489	53.444205594994	1.002
17	174822	53.494205594994	1.002
17	174876	53.544205594994	1.002
17	175209	53.594205594994	1.002
17	175263	53.644205594994	1.002
17	175585	53.694205594994	1.002
17	175639	53.744205594994	1.002
17	175988	53.794205594994	1.002
17	176042	53.844205594994	1.002
17	176359	53.894205594994	1.002
17	176413	53.944205594994	1.002
17	176746	53.994205594994	1.002
17	176800	54.044205594994	1.002
17	177133	54.094205594994	1.002
17	177187	54.144205594994	1.002
17	177498	54.194205594994	1.002
17	177552	54.244205594994	1.002
17	177874	54.294205594994	1.002
17	177928	54.344205594994	1.002
17	178277	54.394205594994	1.002
17	178331	54.444205594994	1.002
17	178680	54.494205594994	1.002
17	178734	54.544205594994	1.002
17	179067	54.594205594994	1.002
17	179121	54.644205594994	1.002
17	179443	54.694205594994	1.002
17	179497	54.744205594994	1.002
17	179830	54.794205594994	1.002
17	179884	54.844205594994	1.002
17	180217	54.894205594994	1.002
17	180271	54.944205594994	1.002
17	180593	54.994205594994	1.002
17	180647	55.044205594994	1.002
17	180964	55.094205594994	1.002
17	181018	55.144205594994	1.002
17	181340	55.194205594994	1.002
17	181394	55.244205594994	1.002
17	181716	55.294205594994	1.002
17	181770	55.344205594994	1.002
17	182103	55.394205594994	1.002
17	182157	55.444205594994	1.002
17	182490	55.494205594994	1.002
17	182544	55.544205594994	1.002
17	182861	55.594205594994	1.002
17	182915	55.644205594994	1.002
17	183237	55.694205594994	1.002
17	183291	55.744205594994	1.002
17	183624	55.794205594994	1.002
17	183678	55.844205594994	1.002
17	184011	55.894205594994	1.002
17	184065	55.944205594994	1.002
17	184398	55.994205594994	1.002
17	184452	56.044205594994	1.002
17	184785	56.094205594994	1.002
17	184839	56.144205594994	1.002
17	185156	56.194205594994	1.002
17	185210	56.244205594994	1.002
17	185532	56.294205594994	1.002
17	185586	56.344205594994	1.002
17	185935	56.394205594994	1.002
17	185989	56.444205594994	1.002
17	186300	56.494205594994	1.002
17	186354	56.544205594994	1.002
17	186687	56.594205594994	1.002
17	186741	56.644205594994	1.002
17	187074	56.694205594994	1.002
17	187128	56.744205594994	1.002
17	187461	56.794205594994	1.002
17	187515	56.844205594994	1.002
17	187832	56.894205594994	1.002
17	187886	56.944205594994	1.002
17	188235	56.994205594994	1.002
17	188289	57.044205594994	1.002
17	188611	57.094205594994	1.002
17	188665	57.144205594994	1.002
17	188987	57.194205594994	1.002
17	189041	57.244205594994	1.002
17	189374	57.294205594994	1.002
17	189428	57.344205594994	1.002
17	189761	57.394205594994	1.002
17	189815	57.444205594994	1.002
17	190148	57.494205594994	1.002
17	190202	57.544205594994	1.002
17	190551	57.594205594994	1.002
17	190605	57.644205594994	1.002
17	190938	57.694205594994	1.002
17	190992	57.744205594994	1.002
17	191325	57.794205594994	1.002
17	191379	57.844205594994	1.002
17	191728	57.894205594994	1.002
17	191782	57.944205594994	1.002
17	192131	57.994205594994	1.002
17	192185	58.044205594994	1.002
17	192518	58.094205594994	1.002
17	192572	58.144205594994	1.002
17	192905	58.194205594994	1.002
17	192959	58.244205594994	1.002
17	193276	58.294205594994	1.002
17	193330	58.344205594994	1.002
17	193647	58.394205594994	1.002
17	193701	58.444205594994	1.002
17	194018	58.494205594994	1.002
17	194072	58.544205594994	1.002
17	194405	58.594205594994	1.002
17	194459	58.644205594994	1.002
17	194781	58.694205594994	1.002
17	194835	58.744205594994	1.002
17	195168	58.794205594994	1.002
17	195222	58.844205594994	1.002
17	195544	58.894205594994	1.002
17	195598	58.944205594994	1.002
17	195915	58.994205594994	1.002
17	195969	59.044205594994	1.002
17	196302	59.094205594994	1.002
17	196356	59.144205594994	1.002
17	196705	59.194205594994	1.002
17	196759	59.244205594994	1.002
17	197092	59.294205594994	1.002
17	197146	59.344205594994	1.002
17	197479	59.394205594994	1.002
17	197533	59.444205594994	1.002
17	197866	59.494205594994	1.002
17	197920	59.544205594994	1.002
17	198237	59.594205594994	1.002
17	198291	59.644205594994	1.002
17	198624	59.694205594994	1.002
17	198678	59.744205594994	1.002
17	199000	59.794205594994	1.002
17	199054	59.844205594994	1.002
17	199376	59.894205594994	1.002
17	199430	59.944205594994	1.002
17	199752	59.994205594994	1.002
17	199806	60.044205594994	1.002
17	200128	60.094205594994	1.002
17	200182	60.144205594994	1.002
17	200515	60.194205594994	1.002
17	200569	60.244205594994	1.002
17	200902	60.294205594994	1.002
17	200956	60.344205594994	1.002
17	201273	60.394205594994	1.002
17	201327	60.444205594994	1.002
17	201660	60.494205594994	1.002
17	201714	60.544205594994	1.002
17	202031	60.594205594994	1.002
17	202085	60.644205594994	1.002
17	202418	60.694205594994	1.002
17	202472	60.744205594994	1.002
17	202794	60.794205594994	1.002
17	202848	60.844205594994	1.002
17	203181	60.894205594994	1.002
17	203235	60.944205594994	1.002
17	203557	60.994205594994	1.002
17	203611	61.044205594994	1.002
17	203944	61.094205594994	1.002
17	203998	61.144205594994	1.002
17	204320	61.194205594994	1.002
17	204374	61.244205594994	1.002
17	204707	61.294205594994	1.002
17	204761	61.344205594994	1.002
17	205110	61.394205594994	1.002
17	205164	61.444205594994	1.002
17	205481	61.494205594994	1.002
17	205535	61.544205594994	1.002
17	205868	61.594205594994	1.002
16	27	0.594205594994	1
16	45	0.644205594994	2
16	62	0.694205594994	3
16	80	0.744205594994	4
16	97	0.794205594994	5
16	115	0.844205594994	6
16	132	0.894205594994	7
16	150	0.944205594994	8
16	167	0.994205594994	9
16	185	1.044205594994	10
16	202	1.094205594994	11
16	220	1.144205594994	12
16	237	1.194205594994	13
16	255	1.244205594994	14
16	272	1.294205594994	15
16	290	1.344205594994	16
16	307	1.394205594994	17
16	325	1.444205594994	18
16	342	1.494205594994	19
16	360	1.544205594994	20
16	377	1.594205594994	21
16	395	1.644205594994	22
16	412	1.694205594994	23
16	430	1.744205594994	24
16	447	1.794205594994	25
16	465	1.844205594994	26
16	482	1.894205594994	27
16	500	1.944205594994	28
16	517	1.994205594994	29
16	535	2.044205594994	30
16	552	2.094205594994	31
16	570	2.144205594994	32
16	587	2.194205594994	33
16	605	2.244205594994	34
16	622	2.294205594994	35
16	640	2.344205594994	36
16	657	2.394205594994	37
16	675	2.444205594994	38
16	692	2.494205594994	39
16	710	2.544205594994	40
16	727	2.594205594994	41
16	745	2.644205594994	42
16	762	2.694205594994	43
16	780	2.744205594994	44
16	797	2.794205594994	45
16	815	2.844205594994	46
16	832	2.894205594994	47
16	850	2.944205594994	48
16	867	2.994205594994	49
16	885	3.044205594994	50
16	902	3.094205594994	51
16	920	3.144205594994	52
16	965	3.194205594994	54
16	992	3.244205594994	56
16	1056	3.294205594994	58
16	1083	3.344205594994	60
16	1147	3.394205594994	62
16	1174	3.444205594994	64
16	1238	3.494205594994	66
16	1265	3.544205594994	68
16	1329	3.594205594994	70
16	1356	3.644205594994	72
16	1420	3.694205594994	74
16	1447	3.744205594994	76
16	1511	3.794205594994	78
16	1538	3.844205594994	80
16	1602	3.894205594994	82
16	1629	3.944205594994	84
16	1693	3.994205594994	86
16	1720	4.044205594994	88
16	1784	4.094205594994	90
16	1811	4.144205594994	92
16	1875	4.194205594994	94
16	1902	4.244205594994	96
16	1966	4.294205594994	98
16	1993	4.344205594994	100
16	2057	4.394205594994	102
16	2084	4.444205594994	104
16	2148	4.494205594994	106
16	2175	4.544205594994	108
16	2239	4.594205594994	110
16	2266	4.644205594994	112
16	2330	4.694205594994	114
16	2357	4.744205594994	116
16	2421	4.794205594994	118
16	2448	4.844205594994	120
16	2512	4.894205594994	122
16	2539	4.944205594994	124
16	2603	4.994205594994	126
16	2630	5.044205594994	128
16	2694	5.094205594994	130
16	2721	5.144205594994	132
16	2785	5.194205594994	134
16	2812	5.244205594994	136
16	2876	5.294205594994	138
16	2903	5.344205594994	140
16	2967	5.394205594994	142
16	2994	5.444205594994	144
16	3058	5.494205594994	146
16	3085	5.544205594994	148
16	3149	5.594205594994	150
16	3176	5.644205594994	152
16	3240	5.694205594994	154
16	3267	5.744205594994	156
16	3331	5.794205594994	158
16	3358	5.844205594994	160
16	3422	5.894205594994	162
16	3449	5.944205594994	164
16	3513	5.994205594994	166
16	3540	6.044205594994	168
16	3604	6.094205594994	170
16	3631	6.144205594994	172
16	3714	6.194205594994	174
16	3748	6.244205594994	176
16	3831	6.294205594994	178
16	3865	6.344205594994	180
16	3975	6.394205594994	183
16	4011	6.444205594994	186
16	4146	6.494205594994	189
16	4182	6.544205594994	192
16	4317	6.594205594994	195
16	4353	6.644205594994	198
16	4488	6.694205594994	201
16	4524	6.744205594994	204
16	4659	6.794205594994	207
16	4695	6.844205594994	210
16	4830	6.894205594994	213
16	4866	6.944205594994	216
16	5001	6.994205594994	219
16	5037	7.044205594994	222
16	5172	7.094205594994	225
16	5208	7.144205594994	228
16	5333	7.194205594994	231
16	5369	7.244205594994	234
16	5504	7.294205594994	237
16	5540	7.344205594994	240
16	5675	7.394205594994	243
16	5711	7.444205594994	246
16	5846	7.494205594994	249
16	5882	7.544205594994	252
16	6007	7.594205594994	255
16	6043	7.644205594994	258
16	6178	7.694205594994	261
16	6214	7.744205594994	264
16	6349	7.794205594994	267
16	6385	7.844205594994	270
16	6520	7.894205594994	273
16	6556	7.944205594994	276
16	6691	7.994205594994	279
16	6727	8.044205594994	282
16	6862	8.094205594994	285
16	6898	8.144205594994	288
16	7033	8.194205594994	291
16	7069	8.244205594994	294
16	7204	8.294205594994	297
16	7240	8.344205594994	300
16	7365	8.394205594994	303
16	7401	8.444205594994	306
16	7536	8.494205594994	309
16	7572	8.544205594994	312
16	7707	8.594205594994	315
16	7743	8.644205594994	318
16	7878	8.694205594994	321
16	7914	8.744205594994	324
16	8049	8.794205594994	327
16	8085	8.844205594994	330
16	8210	8.894205594994	333
16	8246	8.944205594994	336
16	8381	8.994205594994	339
16	8417	9.044205594994	342
16	8552	9.094205594994	345
16	8588	9.144205594994	348
16	8754	9.194205594994	351
16	8797	9.244205594994	354
16	8950	9.294205594994	357
16	8993	9.344205594994	360
16	9146	9.394205594994	363
16	9189	9.444205594994	366
16	9342	9.494205594994	369
16	9385	9.544205594994	372
16	9539	9.594205594994	375
16	9582	9.644205594994	378
16	9748	9.694205594994	381
16	9791	9.744205594994	384
16	9945	9.794205594994	387
16	9988	9.844205594994	390
16	10154	9.894205594994	393
16	10197	9.944205594994	396
16	10396	9.994205594994	400
16	10441	10.044205594994	404
16	10671	10.094205594994	408
16	10716	10.144205594994	412
16	10933	10.194205594994	416
16	10978	10.244205594994	420
16	11186	10.294205594994	424
16	11231	10.344205594994	428
16	11439	10.394205594994	432
16	11484	10.444205594994	436
16	11714	10.494205594994	440
16	11759	10.544205594994	444
16	11967	10.594205594994	448
16	12012	10.644205594994	452
16	12242	10.694205594994	456
16	12287	10.744205594994	460
16	12517	10.794205594994	464
16	12562	10.844205594994	468
16	12792	10.894205594994	472
16	12837	10.944205594994	476
16	13067	10.994205594994	480
16	13112	11.044205594994	484
16	13329	11.094205594994	488
16	13374	11.144205594994	492
16	13604	11.194205594994	496
16	13649	11.244205594994	500
16	13879	11.294205594994	504
16	13924	11.344205594994	508
16	14141	11.394205594994	512
16	14186	11.444205594994	516
16	14416	11.494205594994	520
16	14461	11.544205594994	524
16	14691	11.594205594994	528
16	14736	11.644205594994	532
16	14966	11.694205594994	536
16	15011	11.744205594994	540
16	15228	11.794205594994	544
16	15273	11.844205594994	548
16	15490	11.894205594994	552
16	15535	11.944205594994	556
16	15765	11.994205594994	560
16	15810	12.044205594994	564
16	16040	12.094205594994	568
16	16085	12.144205594994	572
16	16358	12.194205594994	576
16	16410	12.244205594994	580
16	16722	12.294205594994	585
16	16776	12.344205594994	590
16	17109	12.394205594994	595
16	17163	12.444205594994	600
16	17496	12.494205594994	605
16	17550	12.544205594994	610
16	17867	12.594205594994	615
16	17921	12.644205594994	620
16	18254	12.694205594994	625
16	18308	12.744205594994	630
16	18641	12.794205594994	635
16	18695	12.844205594994	640
16	19013	12.894205594994	645
16	19067	12.944205594994	650
16	19400	12.994205594994	655
16	19454	13.044205594994	660
16	19787	13.094205594994	665
16	19841	13.144205594994	670
16	20163	13.194205594994	675
16	20217	13.244205594994	680
16	20566	13.294205594994	685
16	20620	13.344205594994	690
16	20969	13.394205594994	695
16	21023	13.444205594994	700
16	21356	13.494205594994	705
16	21410	13.544205594994	710
16	21743	13.594205594994	715
16	21797	13.644205594994	720
16	22131	13.694205594994	725
16	22185	13.744205594994	730
16	22518	13.794205594994	735
16	22572	13.844205594994	740
16	22905	13.894205594994	745
16	22959	13.944205594994	750
16	23292	13.994205594994	755
16	23346	14.044205594994	760
16	23663	14.094205594994	765
16	23717	14.144205594994	770
16	24035	14.194205594994	775
16	24089	14.244205594994	780
16	24411	14.294205594994	785
16	24465	14.344205594994	790
16	24814	14.394205594994	795
16	24868	14.444205594994	800
16	25190	14.494205594994	805
16	25244	14.544205594994	810
16	25566	14.594205594994	815
16	25620	14.644205594994	820
16	25942	14.694205594994	825
16	25996	14.744205594994	830
16	26318	14.794205594994	835
16	26372	14.844205594994	840
16	26705	14.894205594994	845
16	26759	14.944205594994	850
16	27092	14.994205594994	855
16	27146	15.044205594994	860
16	27463	15.094205594994	865
16	27517	15.144205594994	870
16	27839	15.194205594994	875
16	27893	15.244205594994	880
16	28226	15.294205594994	885
16	28280	15.344205594994	890
16	28613	15.394205594994	895
16	28667	15.444205594994	900
16	28984	15.494205594994	905
16	29038	15.544205594994	910
16	29360	15.594205594994	915
16	29414	15.644205594994	920
16	29763	15.694205594994	925
16	29817	15.744205594994	930
16	30150	15.794205594994	935
16	30204	15.844205594994	940
16	30537	15.894205594994	945
16	30591	15.944205594994	950
16	30924	15.994205594994	955
16	30978	16.044205594994	960
16	31311	16.094205594994	965
16	31365	16.144205594994	970
16	31698	16.194205594994	975
16	31752	16.244205594994	980
16	32085	16.294205594994	985
16	32139	16.344205594994	990
16	32456	16.394205594994	995
16	32510	16.444205594994	1000
16	32843	16.494205594994	1005
16	32897	16.544205594994	1010
16	33219	16.594205594994	1015
16	33273	16.644205594994	1020
16	33606	16.694205594994	1025
16	33660	16.744205594994	1030
16	33993	16.794205594994	1035
16	34047	16.844205594994	1040
16	34380	16.894205594994	1045
16	34434	16.944205594994	1050
16	34783	16.994205594994	1055
16	34837	17.044205594994	1060
16	35159	17.094205594994	1065
16	35213	17.144205594994	1070
16	35546	17.194205594994	1075
16	35600	17.244205594994	1080
16	35933	17.294205594994	1085
16	35987	17.344205594994	1090
16	36320	17.394205594994	1095
16	36374	17.444205594994	1100
16	36707	17.494205594994	1105
16	36761	17.544205594994	1110
16	37094	17.594205594994	1115
16	37148	17.644205594994	1120
16	37481	17.694205594994	1125
16	37535	17.744205594994	1130
16	37868	17.794205594994	1135
16	37922	17.844205594994	1140
16	38255	17.894205594994	1145
16	38309	17.944205594994	1150
16	38631	17.994205594994	1155
16	38685	18.044205594994	1160
16	39002	18.094205594994	1165
16	39056	18.144205594994	1170
16	39389	18.194205594994	1175
16	39443	18.244205594994	1180
16	39776	18.294205594994	1185
16	39830	18.344205594994	1190
16	40152	18.394205594994	1195
16	40206	18.444205594994	1200
16	40539	18.494205594994	1205
16	40593	18.544205594994	1210
16	40915	18.594205594994	1215
16	40969	18.644205594994	1220
16	41302	18.694205594994	1225
16	41356	18.744205594994	1230
16	41689	18.794205594994	1235
16	41743	18.844205594994	1240
16	42076	18.894205594994	1245
16	42130	18.944205594994	1250
16	42452	18.994205594994	1255
16	42506	19.044205594994	1260
16	42839	19.094205594994	1265
16	42893	19.144205594994	1270
16	43226	19.194205594994	1275
16	43280	19.244205594994	1280
16	43613	19.294205594994	1285
16	43667	19.344205594994	1290
16	43989	19.394205594994	1295
16	44043	19.444205594994	1300
16	44376	19.494205594994	1305
16	44430	19.544205594994	1310
16	44763	19.594205594994	1315
16	44817	19.644205594994	1320
16	45150	19.694205594994	1325
16	45204	19.744205594994	1330
16	45537	19.794205594994	1335
16	45591	19.844205594994	1340
16	45908	19.894205594994	1345
16	45962	19.944205594994	1350
16	46295	19.994205594994	1355
16	46349	20.044205594994	1360
16	46671	20.094205594994	1365
16	46725	20.144205594994	1370
16	47047	20.194205594994	1375
16	47101	20.244205594994	1380
16	47450	20.294205594994	1385
16	47504	20.344205594994	1390
16	47837	20.394205594994	1395
16	47891	20.444205594994	1400
16	48224	20.494205594994	1405
16	48278	20.544205594994	1410
16	48627	20.594205594994	1415
16	48681	20.644205594994	1420
16	49003	20.694205594994	1425
16	49057	20.744205594994	1430
16	49390	20.794205594994	1435
16	49444	20.844205594994	1440
16	49777	20.894205594994	1445
16	49831	20.944205594994	1450
16	50153	20.994205594994	1455
16	50207	21.044205594994	1460
16	50529	21.094205594994	1465
16	50583	21.144205594994	1470
16	50916	21.194205594994	1475
16	50970	21.244205594994	1480
16	51319	21.294205594994	1485
16	51373	21.344205594994	1490
16	51706	21.394205594994	1495
16	51760	21.444205594994	1500
16	52109	21.494205594994	1505
16	52163	21.544205594994	1510
16	52496	21.594205594994	1515
16	52550	21.644205594994	1520
16	52883	21.694205594994	1525
16	52937	21.744205594994	1530
16	53270	21.794205594994	1535
16	53324	21.844205594994	1540
16	53646	21.894205594994	1545
16	53700	21.944205594994	1550
16	54017	21.994205594994	1555
16	54071	22.044205594994	1560
16	54393	22.094205594994	1565
16	54447	22.144205594994	1570
16	54769	22.194205594994	1575
16	54823	22.244205594994	1580
16	55134	22.294205594994	1585
16	55188	22.344205594994	1590
16	55521	22.394205594994	1595
16	55575	22.444205594994	1600
16	55897	22.494205594994	1605
16	55951	22.544205594994	1610
16	56300	22.594205594994	1615
16	56354	22.644205594994	1620
16	56687	22.694205594994	1625
16	56741	22.744205594994	1630
16	57058	22.794205594994	1635
16	57112	22.844205594994	1640
16	57445	22.894205594994	1645
16	57499	22.944205594994	1650
16	57832	22.994205594994	1655
16	57886	23.044205594994	1660
16	58208	23.094205594994	1665
16	58262	23.144205594994	1670
16	58579	23.194205594994	1675
16	58633	23.244205594994	1680
16	58966	23.294205594994	1685
16	59020	23.344205594994	1690
16	59353	23.394205594994	1695
16	59407	23.444205594994	1700
16	59729	23.494205594994	1705
16	59783	23.544205594994	1710
16	60116	23.594205594994	1715
16	60170	23.644205594994	1720
16	60503	23.694205594994	1725
16	60557	23.744205594994	1730
16	60890	23.794205594994	1735
16	60944	23.844205594994	1740
16	61255	23.894205594994	1745
16	61309	23.944205594994	1750
16	61626	23.994205594994	1755
16	61680	24.044205594994	1760
16	62013	24.094205594994	1765
16	62067	24.144205594994	1770
16	62400	24.194205594994	1775
16	62454	24.244205594994	1780
16	62787	24.294205594994	1785
16	62841	24.344205594994	1790
16	63190	24.394205594994	1795
16	63244	24.444205594994	1800
16	63577	24.494205594994	1805
16	63631	24.544205594994	1810
16	63964	24.594205594994	1815
16	64018	24.644205594994	1820
16	64351	24.694205594994	1825
16	64405	24.744205594994	1830
16	64738	24.794205594994	1835
16	64792	24.844205594994	1840
16	65125	24.894205594994	1845
16	65179	24.944205594994	1850
16	65512	24.994205594994	1855
16	65566	25.044205594994	1860
16	65899	25.094205594994	1865
16	65953	25.144205594994	1870
16	66270	25.194205594994	1875
16	66324	25.244205594994	1880
16	66657	25.294205594994	1885
16	66711	25.344205594994	1890
16	67033	25.394205594994	1895
16	67087	25.444205594994	1900
16	67404	25.494205594994	1905
16	67458	25.544205594994	1910
16	67791	25.594205594994	1915
16	67845	25.644205594994	1920
16	68178	25.694205594994	1925
16	68232	25.744205594994	1930
16	68565	25.794205594994	1935
16	68619	25.844205594994	1940
16	68930	25.894205594994	1945
16	68984	25.944205594994	1950
16	69306	25.994205594994	1955
16	69360	26.044205594994	1960
16	69677	26.094205594994	1965
16	69731	26.144205594994	1970
16	70080	26.194205594994	1975
16	70134	26.244205594994	1980
16	70483	26.294205594994	1985
16	70537	26.344205594994	1990
16	70886	26.394205594994	1995
16	70940	26.444205594994	2000
16	71273	26.494205594994	2005
16	71327	26.544205594994	2010
16	71644	26.594205594994	2015
16	71698	26.644205594994	2020
16	72047	26.694205594994	2025
16	72101	26.744205594994	2030
16	72450	26.794205594994	2035
16	72504	26.844205594994	2040
16	72837	26.894205594994	2045
16	72891	26.944205594994	2050
16	73224	26.994205594994	2055
16	73278	27.044205594994	2060
16	73611	27.094205594994	2065
16	73665	27.144205594994	2070
16	73987	27.194205594994	2075
16	74041	27.244205594994	2080
16	74363	27.294205594994	2085
16	74417	27.344205594994	2090
16	74734	27.394205594994	2095
16	74788	27.444205594994	2100
16	75137	27.494205594994	2105
16	75191	27.544205594994	2110
16	75540	27.594205594994	2115
16	75594	27.644205594994	2120
16	75927	27.694205594994	2125
16	75981	27.744205594994	2130
16	76303	27.794205594994	2135
16	76357	27.844205594994	2140
16	76706	27.894205594994	2145
16	76760	27.944205594994	2150
16	77071	27.994205594994	2155
16	77125	28.044205594994	2160
16	77458	28.094205594994	2165
16	77512	28.144205594994	2170
16	77845	28.194205594994	2175
16	77899	28.244205594994	2180
16	78232	28.294205594994	2185
16	78286	28.344205594994	2190
16	78619	28.394205594994	2195
16	78673	28.444205594994	2200
16	78995	28.494205594994	2205
16	79049	28.544205594994	2210
16	79382	28.594205594994	2215
16	79436	28.644205594994	2220
16	79753	28.694205594994	2225
16	79807	28.744205594994	2230
16	80140	28.794205594994	2235
16	80194	28.844205594994	2240
16	80505	28.894205594994	2245
16	80559	28.944205594994	2250
16	80892	28.994205594994	2255
16	80946	29.044205594994	2260
16	81279	29.094205594994	2265
16	81333	29.144205594994	2270
16	81666	29.194205594994	2275
16	81720	29.244205594994	2280
16	82037	29.294205594994	2285
16	82091	29.344205594994	2290
16	82424	29.394205594994	2295
16	82478	29.444205594994	2300
16	82811	29.494205594994	2305
16	82865	29.544205594994	2310
16	83187	29.594205594994	2315
16	83241	29.644205594994	2320
16	83563	29.694205594994	2325
16	83617	29.744205594994	2330
16	83950	29.794205594994	2335
16	84004	29.844205594994	2340
16	84321	29.894205594994	2345
16	84375	29.944205594994	2350
16	84708	29.994205594994	2355
16	84762	30.044205594994	2360
16	85079	30.094205594994	2365
16	85133	30.144205594994	2370
16	85466	30.194205594994	2375
16	85520	30.244205594994	2380
16	85853	30.294205594994	2385
16	85907	30.344205594994	2390
16	86240	30.394205594994	2395
16	86294	30.444205594994	2400
16	86611	30.494205594994	2405
16	86665	30.544205594994	2410
16	86998	30.594205594994	2415
16	87052	30.644205594994	2420
16	87385	30.694205594994	2425
16	87439	30.744205594994	2430
16	87761	30.794205594994	2435
16	87815	30.844205594994	2440
16	88148	30.894205594994	2445
16	88202	30.944205594994	2450
16	88535	30.994205594994	2455
16	88589	31.044205594994	2460
16	88906	31.094205594994	2465
16	88960	31.144205594994	2470
16	89309	31.194205594994	2475
16	89363	31.244205594994	2480
16	89680	31.294205594994	2485
16	89734	31.344205594994	2490
16	90067	31.394205594994	2495
16	90121	31.444205594994	2500
16	90438	31.494205594994	2505
16	90492	31.544205594994	2510
16	90825	31.594205594994	2515
16	90879	31.644205594994	2520
16	91201	31.694205594994	2525
16	91255	31.744205594994	2530
16	91588	31.794205594994	2535
16	91642	31.844205594994	2540
16	91964	31.894205594994	2545
16	92018	31.944205594994	2550
16	92340	31.994205594994	2555
16	92394	32.044205594994	2560
16	92743	32.094205594994	2565
16	92797	32.144205594994	2570
16	93114	32.194205594994	2575
16	93168	32.244205594994	2580
16	93490	32.294205594994	2585
16	93544	32.344205594994	2590
16	93877	32.394205594994	2595
16	93931	32.444205594994	2600
16	94264	32.494205594994	2605
16	94318	32.544205594994	2610
16	94651	32.594205594994	2615
16	94705	32.644205594994	2620
16	95022	32.694205594994	2625
16	95076	32.744205594994	2630
16	95409	32.794205594994	2635
16	95463	32.844205594994	2640
16	95796	32.894205594994	2645
16	95850	32.944205594994	2650
16	96172	32.994205594994	2655
16	96226	33.044205594994	2660
16	96559	33.094205594994	2665
16	96613	33.144205594994	2670
16	96930	33.194205594994	2675
16	96984	33.244205594994	2680
16	97317	33.294205594994	2685
16	97371	33.344205594994	2690
16	97704	33.394205594994	2695
16	97758	33.444205594994	2700
16	98107	33.494205594994	2705
16	98161	33.544205594994	2710
16	98494	33.594205594994	2715
16	98548	33.644205594994	2720
16	98897	33.694205594994	2725
16	98951	33.744205594994	2730
16	99300	33.794205594994	2735
16	99354	33.844205594994	2740
16	99687	33.894205594994	2745
16	99741	33.944205594994	2750
16	100058	33.994205594994	2755
16	100112	34.044205594994	2760
16	100434	34.094205594994	2765
16	100488	34.144205594994	2770
16	100810	34.194205594994	2775
16	100864	34.244205594994	2780
16	101197	34.294205594994	2785
16	101251	34.344205594994	2790
16	101584	34.394205594994	2795
16	101638	34.444205594994	2800
16	101971	34.494205594994	2805
16	102025	34.544205594994	2810
16	102347	34.594205594994	2815
16	102401	34.644205594994	2820
16	102734	34.694205594994	2825
16	102788	34.744205594994	2830
16	103105	34.794205594994	2835
16	103159	34.844205594994	2840
16	103492	34.894205594994	2845
16	103546	34.944205594994	2850
16	103879	34.994205594994	2855
16	103933	35.044205594994	2860
16	104266	35.094205594994	2865
16	104320	35.144205594994	2870
16	104653	35.194205594994	2875
16	104707	35.244205594994	2880
16	105040	35.294205594994	2885
16	105094	35.344205594994	2890
16	105416	35.394205594994	2895
16	105470	35.444205594994	2900
16	105792	35.494205594994	2905
16	105846	35.544205594994	2910
16	106179	35.594205594994	2915
16	106233	35.644205594994	2920
16	106555	35.694205594994	2925
16	106609	35.744205594994	2930
16	106931	35.794205594994	2935
16	106985	35.844205594994	2940
16	107318	35.894205594994	2945
16	107372	35.944205594994	2950
16	107705	35.994205594994	2955
16	107759	36.044205594994	2960
16	108092	36.094205594994	2965
16	108146	36.144205594994	2970
16	108479	36.194205594994	2975
16	108533	36.244205594994	2980
16	108850	36.294205594994	2985
16	108904	36.344205594994	2990
16	109237	36.394205594994	2995
16	109291	36.444205594994	3000
16	109624	36.494205594994	3005
16	109678	36.544205594994	3010
16	110000	36.594205594994	3015
16	110054	36.644205594994	3020
16	110387	36.694205594994	3025
16	110441	36.744205594994	3030
16	110774	36.794205594994	3035
16	110828	36.844205594994	3040
16	111161	36.894205594994	3045
16	111215	36.944205594994	3050
16	111548	36.994205594994	3055
16	111602	37.044205594994	3060
16	111919	37.094205594994	3065
16	111973	37.144205594994	3070
16	112306	37.194205594994	3075
16	112360	37.244205594994	3080
16	112693	37.294205594994	3085
16	112747	37.344205594994	3090
16	113080	37.394205594994	3095
16	113134	37.444205594994	3100
16	113451	37.494205594994	3105
16	113505	37.544205594994	3110
16	113838	37.594205594994	3115
16	113892	37.644205594994	3120
16	114225	37.694205594994	3125
16	114279	37.744205594994	3130
16	114612	37.794205594994	3135
16	114666	37.844205594994	3140
16	114999	37.894205594994	3145
16	115053	37.944205594994	3150
16	115375	37.994205594994	3155
16	115429	38.044205594994	3160
16	115762	38.094205594994	3165
16	115816	38.144205594994	3170
16	116149	38.194205594994	3175
16	116203	38.244205594994	3180
16	116520	38.294205594994	3185
16	116574	38.344205594994	3190
16	116896	38.394205594994	3195
16	116950	38.444205594994	3200
16	117283	38.494205594994	3205
16	117337	38.544205594994	3210
16	117654	38.594205594994	3215
16	117708	38.644205594994	3220
16	118041	38.694205594994	3225
16	118095	38.744205594994	3230
16	118428	38.794205594994	3235
16	118482	38.844205594994	3240
16	118815	38.894205594994	3245
16	118869	38.944205594994	3250
16	119202	38.994205594994	3255
16	119256	39.044205594994	3260
16	119589	39.094205594994	3265
16	119643	39.144205594994	3270
16	119960	39.194205594994	3275
16	120014	39.244205594994	3280
16	120331	39.294205594994	3285
16	120385	39.344205594994	3290
16	120707	39.394205594994	3295
16	120761	39.444205594994	3300
16	121094	39.494205594994	3305
16	121148	39.544205594994	3310
16	121470	39.594205594994	3315
16	121524	39.644205594994	3320
16	121857	39.694205594994	3325
16	121911	39.744205594994	3330
16	122233	39.794205594994	3335
16	122287	39.844205594994	3340
16	122604	39.894205594994	3345
16	122658	39.944205594994	3350
16	122991	39.994205594994	3355
16	123045	40.044205594994	3360
16	123362	40.094205594994	3365
16	123416	40.144205594994	3370
16	123733	40.194205594994	3375
16	123787	40.244205594994	3380
16	124104	40.294205594994	3385
16	124158	40.344205594994	3390
16	124507	40.394205594994	3395
16	124561	40.444205594994	3400
16	124894	40.494205594994	3405
16	124948	40.544205594994	3410
16	125265	40.594205594994	3415
16	125319	40.644205594994	3420
16	125652	40.694205594994	3425
16	125706	40.744205594994	3430
16	126039	40.794205594994	3435
16	126093	40.844205594994	3440
16	126410	40.894205594994	3445
16	126464	40.944205594994	3450
16	126781	40.994205594994	3455
16	126835	41.044205594994	3460
16	127157	41.094205594994	3465
16	127211	41.144205594994	3470
16	127544	41.194205594994	3475
16	127598	41.244205594994	3480
16	127931	41.294205594994	3485
16	127985	41.344205594994	3490
16	128318	41.394205594994	3495
16	128372	41.444205594994	3500
16	128705	41.494205594994	3505
16	128759	41.544205594994	3510
16	129092	41.594205594994	3515
16	129146	41.644205594994	3520
16	129463	41.694205594994	3525
16	129517	41.744205594994	3530
16	129850	41.794205594994	3535
16	129904	41.844205594994	3540
16	130253	41.894205594994	3545
16	130307	41.944205594994	3550
16	130640	41.994205594994	3555
16	130694	42.044205594994	3560
16	131027	42.094205594994	3565
16	131081	42.144205594994	3570
16	131414	42.194205594994	3575
16	131468	42.244205594994	3580
16	131801	42.294205594994	3585
16	131855	42.344205594994	3590
16	132188	42.394205594994	3595
16	132242	42.444205594994	3600
16	132564	42.494205594994	3605
16	132618	42.544205594994	3610
16	132967	42.594205594994	3615
16	133021	42.644205594994	3620
16	133338	42.694205594994	3625
16	133392	42.744205594994	3630
16	133725	42.794205594994	3635
16	133779	42.844205594994	3640
16	134096	42.894205594994	3645
16	134150	42.944205594994	3650
16	134467	42.994205594994	3655
16	134521	43.044205594994	3660
16	134843	43.094205594994	3665
16	134897	43.144205594994	3670
16	135230	43.194205594994	3675
16	135284	43.244205594994	3680
16	135606	43.294205594994	3685
16	135660	43.344205594994	3690
16	135993	43.394205594994	3695
16	136047	43.444205594994	3700
16	136396	43.494205594994	3705
16	136450	43.544205594994	3710
16	136772	43.594205594994	3715
16	136826	43.644205594994	3720
16	137175	43.694205594994	3725
16	137229	43.744205594994	3730
16	137562	43.794205594994	3735
16	137616	43.844205594994	3740
16	137949	43.894205594994	3745
16	138003	43.944205594994	3750
16	138336	43.994205594994	3755
16	138390	44.044205594994	3760
16	138707	44.094205594994	3765
16	138761	44.144205594994	3770
16	139094	44.194205594994	3775
16	139148	44.244205594994	3780
16	139481	44.294205594994	3785
16	139535	44.344205594994	3790
16	139868	44.394205594994	3795
16	139922	44.444205594994	3800
16	140255	44.494205594994	3805
16	140309	44.544205594994	3810
16	140642	44.594205594994	3815
16	140696	44.644205594994	3820
16	141018	44.694205594994	3825
16	141072	44.744205594994	3830
16	141389	44.794205594994	3835
16	141443	44.844205594994	3840
16	141760	44.894205594994	3845
16	141814	44.944205594994	3850
16	142147	44.994205594994	3855
16	142201	45.044205594994	3860
16	142534	45.094205594994	3865
16	142588	45.144205594994	3870
16	142905	45.194205594994	3875
16	142959	45.244205594994	3880
16	143292	45.294205594994	3885
16	143346	45.344205594994	3890
16	143679	45.394205594994	3895
16	143733	45.444205594994	3900
16	144066	45.494205594994	3905
16	144120	45.544205594994	3910
16	144453	45.594205594994	3915
16	144507	45.644205594994	3920
16	144829	45.694205594994	3925
16	144883	45.744205594994	3930
16	145216	45.794205594994	3935
16	145270	45.844205594994	3940
16	145603	45.894205594994	3945
16	145657	45.944205594994	3950
16	145990	45.994205594994	3955
16	146044	46.044205594994	3960
16	146377	46.094205594994	3965
16	146431	46.144205594994	3970
16	146764	46.194205594994	3975
16	146818	46.244205594994	3980
16	147140	46.294205594994	3985
16	147194	46.344205594994	3990
16	147527	46.394205594994	3995
16	147581	46.444205594994	4000
16	147914	46.494205594994	4005
16	147968	46.544205594994	4010
16	148290	46.594205594994	4015
16	148344	46.644205594994	4020
16	148677	46.694205594994	4025
16	148731	46.744205594994	4030
16	149064	46.794205594994	4035
16	149118	46.844205594994	4040
16	149440	46.894205594994	4045
16	149494	46.944205594994	4050
16	149827	46.994205594994	4055
16	149881	47.044205594994	4060
16	150192	47.094205594994	4065
16	150246	47.144205594994	4070
16	150563	47.194205594994	4075
16	150617	47.244205594994	4080
16	150934	47.294205594994	4085
16	150988	47.344205594994	4090
16	151305	47.394205594994	4095
16	151359	47.444205594994	4100
16	151692	47.494205594994	4105
16	151746	47.544205594994	4110
16	152079	47.594205594994	4115
16	152133	47.644205594994	4120
16	152466	47.694205594994	4125
16	152520	47.744205594994	4130
16	152842	47.794205594994	4135
16	152896	47.844205594994	4140
16	153218	47.894205594994	4145
16	153272	47.944205594994	4150
16	153594	47.994205594994	4155
16	153648	48.044205594994	4160
16	153965	48.094205594994	4165
16	154019	48.144205594994	4170
16	154368	48.194205594994	4175
16	154422	48.244205594994	4180
16	154771	48.294205594994	4185
16	154825	48.344205594994	4190
16	155158	48.394205594994	4195
16	155212	48.444205594994	4200
16	155534	48.494205594994	4205
16	155588	48.544205594994	4210
16	155921	48.594205594994	4215
16	155975	48.644205594994	4220
16	156308	48.694205594994	4225
16	156362	48.744205594994	4230
16	156695	48.794205594994	4235
16	156749	48.844205594994	4240
16	157082	48.894205594994	4245
16	157136	48.944205594994	4250
16	157453	48.994205594994	4255
16	157507	49.044205594994	4260
16	157840	49.094205594994	4265
16	157894	49.144205594994	4270
16	158227	49.194205594994	4275
16	158281	49.244205594994	4280
16	158630	49.294205594994	4285
16	158684	49.344205594994	4290
16	159017	49.394205594994	4295
16	159071	49.444205594994	4300
16	159393	49.494205594994	4305
16	159447	49.544205594994	4310
16	159780	49.594205594994	4315
16	159834	49.644205594994	4320
16	160183	49.694205594994	4325
16	160237	49.744205594994	4330
16	160570	49.794205594994	4335
16	160624	49.844205594994	4340
16	160957	49.894205594994	4345
16	161011	49.944205594994	4350
16	161328	49.994205594994	4355
16	161382	50.044205594994	4360
16	161699	50.094205594994	4365
16	161753	50.144205594994	4370
16	162075	50.194205594994	4375
16	162129	50.244205594994	4380
16	162462	50.294205594994	4385
16	162516	50.344205594994	4390
16	162827	50.394205594994	4395
16	162881	50.444205594994	4400
16	163198	50.494205594994	4405
16	163252	50.544205594994	4410
16	163585	50.594205594994	4415
16	163639	50.644205594994	4420
16	163972	50.694205594994	4425
16	164026	50.744205594994	4430
16	164359	50.794205594994	4435
16	164413	50.844205594994	4440
16	164730	50.894205594994	4445
16	164784	50.944205594994	4450
16	165117	50.994205594994	4455
16	165171	51.044205594994	4460
16	165520	51.094205594994	4465
16	165574	51.144205594994	4470
16	165907	51.194205594994	4475
16	165961	51.244205594994	4480
16	166278	51.294205594994	4485
16	166332	51.344205594994	4490
16	166665	51.394205594994	4495
16	166719	51.444205594994	4500
16	167052	51.494205594994	4505
16	167106	51.544205594994	4510
16	167428	51.594205594994	4515
16	167482	51.644205594994	4520
16	167804	51.694205594994	4525
16	167858	51.744205594994	4530
16	168207	51.794205594994	4535
16	168261	51.844205594994	4540
16	168594	51.894205594994	4545
16	168648	51.944205594994	4550
16	168970	51.994205594994	4555
16	169024	52.044205594994	4560
16	169357	52.094205594994	4565
16	169411	52.144205594994	4570
16	169760	52.194205594994	4575
16	169814	52.244205594994	4580
16	170147	52.294205594994	4585
16	170201	52.344205594994	4590
16	170523	52.394205594994	4595
16	170577	52.444205594994	4600
16	170926	52.494205594994	4605
16	170980	52.544205594994	4610
16	171313	52.594205594994	4615
16	171367	52.644205594994	4620
16	171716	52.694205594994	4625
16	171770	52.744205594994	4630
16	172119	52.794205594994	4635
16	172173	52.844205594994	4640
16	172506	52.894205594994	4645
16	172560	52.944205594994	4650
16	172893	52.994205594994	4655
16	172947	53.044205594994	4660
16	173280	53.094205594994	4665
16	173334	53.144205594994	4670
16	173683	53.194205594994	4675
16	173737	53.244205594994	4680
16	174059	53.294205594994	4685
16	174113	53.344205594994	4690
16	174435	53.394205594994	4695
16	174489	53.444205594994	4700
16	174822	53.494205594994	4705
16	174876	53.544205594994	4710
16	175209	53.594205594994	4715
16	175263	53.644205594994	4720
16	175585	53.694205594994	4725
16	175639	53.744205594994	4730
16	175988	53.794205594994	4735
16	176042	53.844205594994	4740
16	176359	53.894205594994	4745
16	176413	53.944205594994	4750
16	176746	53.994205594994	4755
16	176800	54.044205594994	4760
16	177133	54.094205594994	4765
16	177187	54.144205594994	4770
16	177498	54.194205594994	4775
16	177552	54.244205594994	4780
16	177874	54.294205594994	4785
16	177928	54.344205594994	4790
16	178277	54.394205594994	4795
16	178331	54.444205594994	4800
16	178680	54.494205594994	4805
16	178734	54.544205594994	4810
16	179067	54.594205594994	4815
16	179121	54.644205594994	4820
16	179443	54.694205594994	4825
16	179497	54.744205594994	4830
16	179830	54.794205594994	4835
16	179884	54.844205594994	4840
16	180217	54.894205594994	4845
16	180271	54.944205594994	4850
16	180593	54.994205594994	4855
16	180647	55.044205594994	4860
16	180964	55.094205594994	4865
16	181018	55.144205594994	4870
16	181340	55.194205594994	4875
16	181394	55.244205594994	4880
16	181716	55.294205594994	4885
16	181770	55.344205594994	4890
16	182103	55.394205594994	4895
16	182157	55.444205594994	4900
16	182490	55.494205594994	4905
16	182544	55.544205594994	4910
16	182861	55.594205594994	4915
16	182915	55.644205594994	4920
16	183237	55.694205594994	4925
16	183291	55.744205594994	4930
16	183624	55.794205594994	4935
16	183678	55.844205594994	4940
16	184011	55.894205594994	4945
16	184065	55.944205594994	4950
16	184398	55.994205594994	4955
16	184452	56.044205594994	4960
16	184785	56.094205594994	4965
16	184839	56.144205594994	4970
16	185156	56.194205594994	4975
16	185210	56.244205594994	4980
16	185532	56.294205594994	4985
16	185586	56.344205594994	4990
16	185935	56.394205594994	4995
16	185989	56.444205594994	5000
16	186300	56.494205594994	5005
16	186354	56.544205594994	5010
16	186687	56.594205594994	5015
16	186741	56.644205594994	5020
16	187074	56.694205594994	5025
16	187128	56.744205594994	5030
16	187461	56.794205594994	5035
16	187515	56.844205594994	5040
16	187832	56.894205594994	5045
16	187886	56.944205594994	5050
16	188235	56.994205594994	5055
16	188289	57.044205594994	5060
16	188611	57.094205594994	5065
16	188665	57.144205594994	5070
16	188987	57.194205594994	5075
16	189041	57.244205594994	5080
16	189374	57.294205594994	5085
16	189428	57.344205594994	5090
16	189761	57.394205594994	5095
16	189815	57.444205594994	5100
16	190148	57.494205594994	5105
16	190202	57.544205594994	5110
16	190551	57.594205594994	5115
16	190605	57.644205594994	5120
16	190938	57.694205594994	5125
16	190992	57.744205594994	5130
16	191325	57.794205594994	5135
16	191379	57.844205594994	5140
16	191728	57.894205594994	5145
16	191782	57.944205594994	5150
16	192131	57.994205594994	5155
16	192185	58.044205594994	5160
16	192518	58.094205594994	5165
16	192572	58.144205594994	5170
16	192905	58.194205594994	5175
16	192959	58.244205594994	5180
16	193276	58.294205594994	5185
16	193330	58.344205594994	5190
16	193647	58.394205594994	5195
16	193701	58.444205594994	5200
16	194018	58.494205594994	5205
16	194072	58.544205594994	5210
16	194405	58.594205594994	5215
16	194459	58.644205594994	5220
16	194781	58.694205594994	5225
16	194835	58.744205594994	5230
16	195168	58.794205594994	5235
16	195222	58.844205594994	5240
16	195544	58.894205594994	5245
16	195598	58.944205594994	5250
16	195915	58.994205594994	5255
16	195969	59.044205594994	5260
16	196302	59.094205594994	5265
16	196356	59.144205594994	5270
16	196705	59.194205594994	5275
16	196759	59.244205594994	5280
16	197092	59.294205594994	5285
16	197146	59.344205594994	5290
16	197479	59.394205594994	5295
16	197533	59.444205594994	5300
16	197866	59.494205594994	5305
16	197920	59.544205594994	5310
16	198237	59.594205594994	5315
16	198291	59.644205594994	5320
16	198624	59.694205594994	5325
16	198678	59.744205594994	5330
16	199000	59.794205594994	5335
16	199054	59.844205594994	5340
16	199376	59.894205594994	5345
16	199430	59.944205594994	5350
16	199752	59.994205594994	5355
16	199806	60.044205594994	5360
16	200128	60.094205594994	5365
16	200182	60.144205594994	5370
16	200515	60.194205594994	5375
16	200569	60.244205594994	5380
16	200902	60.294205594994	5385
16	200956	60.344205594994	5390
16	201273	60.394205594994	5395
16	201327	60.444205594994	5400
16	201660	60.494205594994	5405
16	201714	60.544205594994	5410
16	202031	60.594205594994	5415
16	202085	60.644205594994	5420
[...]
14	141434	44.800249398352	0.002
14	141450	44.850249398352	0.001
14	141805	44.900249398352	0.002
14	141821	44.950249398352	0.001
14	142192	45.000249398352	0.002
14	142208	45.050249398352	0.001
14	142579	45.100249398352	0.002
14	142595	45.150249398352	0.001
14	142950	45.200249398352	0.002
14	142966	45.250249398352	0.001
14	143337	45.300249398352	0.002
14	143353	45.350249398352	0.001
14	143724	45.400249398352	0.002
14	143740	45.450249398352	0.001
14	144111	45.500249398352	0.002
14	144127	45.550249398352	0.001
14	144498	45.600249398352	0.002
14	144514	45.650249398352	0.001
14	144874	45.700249398352	0.002
14	144890	45.750249398352	0.001
14	145261	45.800249398352	0.002
14	145277	45.850249398352	0.001
14	145648	45.900249398352	0.002
14	145664	45.950249398352	0.001
14	146035	46.000249398352	0.002
14	146051	46.050249398352	0.001
14	146422	46.100249398352	0.002
14	146438	46.150249398352	0.001
14	146809	46.200249398352	0.002
14	146825	46.250249398352	0.001
14	147185	46.300249398352	0.002
14	147201	46.350249398352	0.001
14	147572	46.400249398352	0.002
14	147588	46.450249398352	0.001
14	147959	46.500249398352	0.002
14	147975	46.550249398352	0.001
14	148335	46.600249398352	0.002
14	148351	46.650249398352	0.001
14	148722	46.700249398352	0.002
14	148738	46.750249398352	0.001
14	149109	46.800249398352	0.002
14	149125	46.850249398352	0.001
14	149485	46.900249398352	0.002
14	149501	46.950249398352	0.001
14	149872	47.000249398352	0.002
14	149888	47.050249398352	0.001
14	150237	47.100249398352	0.002
14	150253	47.150249398352	0.001
14	150608	47.200249398352	0.002
14	150624	47.250249398352	0.001
14	150979	47.300249398352	0.002
14	150995	47.350249398352	0.001
14	151350	47.400249398352	0.002
14	151366	47.450249398352	0.001
14	151737	47.500249398352	0.002
14	151753	47.550249398352	0.001
14	152124	47.600249398352	0.002
14	152140	47.650249398352	0.001
14	152511	47.700249398352	0.002
14	152527	47.750249398352	0.001
14	152887	47.800249398352	0.002
14	152903	47.850249398352	0.001
14	153263	47.900249398352	0.002
14	153279	47.950249398352	0.001
14	153639	48.000249398352	0.002
14	153655	48.050249398352	0.001
14	154010	48.100249398352	0.002
14	154026	48.150249398352	0.001
14	154413	48.200249398352	0.002
14	154429	48.250249398352	0.001
14	154816	48.300249398352	0.002
14	154832	48.350249398352	0.001
14	155203	48.400249398352	0.002
14	155219	48.450249398352	0.001
14	155579	48.500249398352	0.002
14	155595	48.550249398352	0.001
14	155966	48.600249398352	0.002
14	155982	48.650249398352	0.001
14	156353	48.700249398352	0.002
14	156369	48.750249398352	0.001
14	156740	48.800249398352	0.002
14	156756	48.850249398352	0.001
14	157127	48.900249398352	0.002
14	157143	48.950249398352	0.001
14	157498	49.000249398352	0.002
14	157514	49.050249398352	0.001
14	157885	49.100249398352	0.002
14	157901	49.150249398352	0.001
14	158272	49.200249398352	0.002
14	158288	49.250249398352	0.001
14	158675	49.300249398352	0.002
14	158691	49.350249398352	0.001
14	159062	49.400249398352	0.002
14	159078	49.450249398352	0.001
14	159438	49.500249398352	0.002
14	159454	49.550249398352	0.001
14	159825	49.600249398352	0.002
14	159841	49.650249398352	0.001
14	160228	49.700249398352	0.002
14	160244	49.750249398352	0.001
14	160615	49.800249398352	0.002
14	160631	49.850249398352	0.001
14	161002	49.900249398352	0.002
14	161018	49.950249398352	0.001
14	161373	50.000249398352	0.002
14	161389	50.050249398352	0.001
14	161744	50.100249398352	0.002
14	161760	50.150249398352	0.001
14	162120	50.200249398352	0.002
14	162136	50.250249398352	0.001
14	162507	50.300249398352	0.002
14	162523	50.350249398352	0.001
14	162872	50.400249398352	0.002
14	162888	50.450249398352	0.001
14	163243	50.500249398352	0.002
14	163259	50.550249398352	0.001
14	163630	50.600249398352	0.002
14	163646	50.650249398352	0.001
14	164017	50.700249398352	0.002
14	164033	50.750249398352	0.001
14	164404	50.800249398352	0.002
14	164420	50.850249398352	0.001
14	164775	50.900249398352	0.002
14	164791	50.950249398352	0.001
14	165162	51.000249398352	0.002
14	165178	51.050249398352	0.001
14	165565	51.100249398352	0.002
14	165581	51.150249398352	0.001
14	165952	51.200249398352	0.002
14	165968	51.250249398352	0.001
14	166323	51.300249398352	0.002
14	166339	51.350249398352	0.001
14	166710	51.400249398352	0.002
14	166726	51.450249398352	0.001
14	167097	51.500249398352	0.002
14	167113	51.550249398352	0.001
14	167473	51.600249398352	0.002
14	167489	51.650249398352	0.001
14	167849	51.700249398352	0.002
14	167865	51.750249398352	0.001
14	168252	51.800249398352	0.002
14	168268	51.850249398352	0.001
14	168639	51.900249398352	0.002
14	168655	51.950249398352	0.001
14	169015	52.000249398352	0.002
14	169031	52.050249398352	0.001
14	169402	52.100249398352	0.002
14	169418	52.150249398352	0.001
14	169805	52.200249398352	0.002
14	169821	52.250249398352	0.001
14	170192	52.300249398352	0.002
14	170208	52.350249398352	0.001
14	170568	52.400249398352	0.002
14	170584	52.450249398352	0.001
14	170971	52.500249398352	0.002
14	170987	52.550249398352	0.001
14	171358	52.600249398352	0.002
14	171374	52.650249398352	0.001
14	171761	52.700249398352	0.002
14	171777	52.750249398352	0.001
14	172164	52.800249398352	0.002
14	172180	52.850249398352	0.001
14	172551	52.900249398352	0.002
14	172567	52.950249398352	0.001
14	172938	53.000249398352	0.002
14	172954	53.050249398352	0.001
14	173325	53.100249398352	0.002
14	173341	53.150249398352	0.001
14	173728	53.200249398352	0.002
14	173744	53.250249398352	0.001
14	174104	53.300249398352	0.002
14	174120	53.350249398352	0.001
14	174480	53.400249398352	0.002
14	174496	53.450249398352	0.001
14	174867	53.500249398352	0.002
14	174883	53.550249398352	0.001
14	175254	53.600249398352	0.002
14	175270	53.650249398352	0.001
14	175630	53.700249398352	0.002
14	175646	53.750249398352	0.001
14	176033	53.800249398352	0.002
14	176049	53.850249398352	0.001
14	176404	53.900249398352	0.002
14	176420	53.950249398352	0.001
14	176791	54.000249398352	0.002
14	176807	54.050249398352	0.001
14	177178	54.100249398352	0.002
14	177194	54.150249398352	0.001
14	177543	54.200249398352	0.002
14	177559	54.250249398352	0.001
14	177919	54.300249398352	0.002
14	177935	54.350249398352	0.001
14	178322	54.400249398352	0.002
14	178338	54.450249398352	0.001
14	178725	54.500249398352	0.002
14	178741	54.550249398352	0.001
14	179112	54.600249398352	0.002
14	179128	54.650249398352	0.001
14	179488	54.700249398352	0.002
14	179504	54.750249398352	0.001
14	179875	54.800249398352	0.002
14	179891	54.850249398352	0.001
14	180262	54.900249398352	0.002
14	180278	54.950249398352	0.001
14	180638	55.000249398352	0.002
14	180654	55.050249398352	0.001
14	181009	55.100249398352	0.002
14	181025	55.150249398352	0.001
14	181385	55.200249398352	0.002
14	181401	55.250249398352	0.001
14	181761	55.300249398352	0.002
14	181777	55.350249398352	0.001
14	182148	55.400249398352	0.002
14	182164	55.450249398352	0.001
14	182535	55.500249398352	0.002
14	182551	55.550249398352	0.001
14	182906	55.600249398352	0.002
14	182922	55.650249398352	0.001
14	183282	55.700249398352	0.002
14	183298	55.750249398352	0.001
14	183669	55.800249398352	0.002
14	183685	55.850249398352	0.001
14	184056	55.900249398352	0.002
14	184072	55.950249398352	0.001
14	184443	56.000249398352	0.002
14	184459	56.050249398352	0.001
14	184830	56.100249398352	0.002
14	184846	56.150249398352	0.001
14	185201	56.200249398352	0.002
14	185217	56.250249398352	0.001
14	185577	56.300249398352	0.002
14	185593	56.350249398352	0.001
14	185980	56.400249398352	0.002
14	185996	56.450249398352	0.001
14	186345	56.500249398352	0.002
14	186361	56.550249398352	0.001
14	186732	56.600249398352	0.002
14	186748	56.650249398352	0.001
14	187119	56.700249398352	0.002
14	187135	56.750249398352	0.001
14	187506	56.800249398352	0.002
14	187522	56.850249398352	0.001
14	187877	56.900249398352	0.002
14	187893	56.950249398352	0.001
14	188280	57.000249398352	0.002
14	188296	57.050249398352	0.001
14	188656	57.100249398352	0.002
14	188672	57.150249398352	0.001
14	189032	57.200249398352	0.002
14	189048	57.250249398352	0.001
14	189419	57.300249398352	0.002
14	189435	57.350249398352	0.001
14	189806	57.400249398352	0.002
14	189822	57.450249398352	0.001
14	190193	57.500249398352	0.002
14	190209	57.550249398352	0.001
14	190596	57.600249398352	0.002
14	190612	57.650249398352	0.001
14	190983	57.700249398352	0.002
14	190999	57.750249398352	0.001
14	191370	57.800249398352	0.002
14	191386	57.850249398352	0.001
14	191773	57.900249398352	0.002
14	191789	57.950249398352	0.001
14	192176	58.000249398352	0.002
14	192192	58.050249398352	0.001
14	192563	58.100249398352	0.002
14	192579	58.150249398352	0.001
14	192950	58.200249398352	0.002
14	192966	58.250249398352	0.001
14	193321	58.300249398352	0.002
14	193337	58.350249398352	0.001
14	193692	58.400249398352	0.002
14	193708	58.450249398352	0.001
14	194063	58.500249398352	0.002
14	194079	58.550249398352	0.001
14	194450	58.600249398352	0.002
14	194466	58.650249398352	0.001
14	194826	58.700249398352	0.002
14	194842	58.750249398352	0.001
14	195213	58.800249398352	0.002
14	195229	58.850249398352	0.001
14	195589	58.900249398352	0.002
14	195605	58.950249398352	0.001
14	195960	59.000249398352	0.002
14	195976	59.050249398352	0.001
14	196347	59.100249398352	0.002
14	196363	59.150249398352	0.001
14	196750	59.200249398352	0.002
14	196766	59.250249398352	0.001
14	197137	59.300249398352	0.002
14	197153	59.350249398352	0.001
14	197524	59.400249398352	0.002
14	197540	59.450249398352	0.001
14	197911	59.500249398352	0.002
14	197927	59.550249398352	0.001
14	198282	59.600249398352	0.002
14	198298	59.650249398352	0.001
14	198669	59.700249398352	0.002
14	198685	59.750249398352	0.001
14	199045	59.800249398352	0.002
14	199061	59.850249398352	0.001
14	199421	59.900249398352	0.002
14	199437	59.950249398352	0.001
14	199797	60.000249398352	0.002
14	199813	60.050249398352	0.001
14	200173	60.100249398352	0.002
14	200189	60.150249398352	0.001
14	200560	60.200249398352	0.002
14	200576	60.250249398352	0.001
14	200947	60.300249398352	0.002
14	200963	60.350249398352	0.001
14	201318	60.400249398352	0.002
14	201334	60.450249398352	0.001
14	201705	60.500249398352	0.002
14	201721	60.550249398352	0.001
14	202076	60.600249398352	0.002
14	202092	60.650249398352	0.001
14	202463	60.700249398352	0.002
14	202479	60.750249398352	0.001
14	202839	60.800249398352	0.002
14	202855	60.850249398352	0.001
14	203226	60.900249398352	0.002
14	203242	60.950249398352	0.001
14	203602	61.000249398352	0.002
14	203618	61.050249398352	0.001
14	203989	61.100249398352	0.002
14	204005	61.150249398352	0.001
14	204365	61.200249398352	0.002
14	204381	61.250249398352	0.001
14	204752	61.300249398352	0.002
14	204768	61.350249398352	0.001
14	205155	61.400249398352	0.002
14	205171	61.450249398352	0.001
14	205526	61.500249398352	0.002
14	205542	61.550249398352	0.001
14	205912	61.600249398352	0.002
14	205925	61.650249398352	0.001
14	206174	61.700249398352	0.002
14	206187	61.750249398352	0.001
14	206436	61.800249398352	0.002
14	206449	61.850249398352	0.001
14	206698	61.900249398352	0.002
14	206711	61.950249398352	0.001
14	206973	62.000249398352	0.002
14	206986	62.050249398352	0.001
14	207235	62.100249398352	0.002
14	207248	62.150249398352	0.001
14	207488	62.200249398352	0.002
14	207501	62.250249398352	0.001
14	207763	62.300249398352	0.002
14	207776	62.350249398352	0.001
14	208025	62.400249398352	0.002
14	208038	62.450249398352	0.001
14	208287	62.500249398352	0.002
14	208300	62.550249398352	0.001
14	208549	62.600249398352	0.002
14	208562	62.650249398352	0.001
14	208811	62.700249398352	0.002
14	208824	62.750249398352	0.001
14	209086	62.800249398352	0.002
14	209099	62.850249398352	0.001
14	209361	62.900249398352	0.002
14	209374	62.950249398352	0.001
14	209636	63.000249398352	0.002
14	209649	63.050249398352	0.001
14	209911	63.100249398352	0.002
14	209924	63.150249398352	0.001
14	210173	63.200249398352	0.002
14	210186	63.250249398352	0.001
14	210448	63.300249398352	0.002
14	210461	63.350249398352	0.001
14	210710	63.400249398352	0.002
14	210723	63.450249398352	0.001
14	210972	63.500249398352	0.002
14	210985	63.550249398352	0.001
14	211225	63.600249398352	0.002
14	211238	63.650249398352	0.001
14	211500	63.700249398352	0.002
14	211513	63.750249398352	0.001
14	211762	63.800249398352	0.002
14	211775	63.850249398352	0.001
14	212024	63.900249398352	0.002
14	212037	63.950249398352	0.001
14	212286	64.000249398352	0.002
14	212299	64.050249398352	0.001
14	212548	64.100249398352	0.002
14	212561	64.150249398352	0.001
14	212823	64.200249398352	0.002
14	212836	64.250249398352	0.001
14	213098	64.300249398352	0.002
14	213111	64.350249398352	0.001
14	213373	64.400249398352	0.002
14	213386	64.450249398352	0.001
14	213635	64.500249398352	0.002
14	213648	64.550249398352	0.001
14	213910	64.600249398352	0.002
14	213923	64.650249398352	0.001
14	214185	64.700249398352	0.002
14	214198	64.750249398352	0.001
14	214446	64.800249398352	0.002
14	214456	64.850249398352	0.001
14	214617	64.900249398352	0.002
14	214627	64.950249398352	0.001
14	214788	65.000249398352	0.002
14	214798	65.050249398352	0.001
14	214949	65.100249398352	0.002
14	214959	65.150249398352	0.001
14	215110	65.200249398352	0.002
14	215120	65.250249398352	0.001
14	215281	65.300249398352	0.002
14	215291	65.350249398352	0.001
14	215452	65.400249398352	0.002
14	215462	65.450249398352	0.001
14	215623	65.500249398352	0.002
14	215633	65.550249398352	0.001
14	215794	65.600249398352	0.002
14	215804	65.650249398352	0.001
14	215965	65.700249398352	0.002
14	215975	65.750249398352	0.001
14	216126	65.800249398352	0.002
14	216136	65.850249398352	0.001
14	216297	65.900249398352	0.002
14	216307	65.950249398352	0.001
14	216468	66.000249398352	0.002
14	216478	66.050249398352	0.001
14	216639	66.100249398352	0.002
14	216649	66.150249398352	0.001
14	216810	66.200249398352	0.002
14	216820	66.250249398352	0.001
14	216981	66.300249398352	0.002
14	216991	66.350249398352	0.001
14	217152	66.400249398352	0.002
14	217162	66.450249398352	0.001
14	217323	66.500249398352	0.002
14	217333	66.550249398352	0.001
14	217494	66.600249398352	0.002
14	217504	66.650249398352	0.001
14	217665	66.700249398352	0.002
14	217675	66.750249398352	0.001
14	217826	66.800249398352	0.002
14	217836	66.850249398352	0.001
14	217987	66.900249398352	0.002
14	217997	66.950249398352	0.001
14	218158	67.000249398352	0.002
14	218168	67.050249398352	0.001
14	218329	67.100249398352	0.002
14	218339	67.150249398352	0.001
14	218500	67.200249398352	0.002
14	218510	67.250249398352	0.001
14	218661	67.300249398352	0.002
14	218671	67.350249398352	0.001
14	218832	67.400249398352	0.002
14	218842	67.450249398352	0.001
14	219003	67.500249398352	0.002
14	219013	67.550249398352	0.001
14	219173	67.600249398352	0.002
14	219180	67.650249398352	0.001
14	219264	67.700249398352	0.002
14	219271	67.750249398352	0.001
14	219355	67.800249398352	0.002
14	219362	67.850249398352	0.001
14	219446	67.900249398352	0.002
14	219453	67.950249398352	0.001
14	219537	68.000249398352	0.002
14	219544	68.050249398352	0.001
14	219628	68.100249398352	0.002
14	219635	68.150249398352	0.001
14	219719	68.200249398352	0.002
14	219726	68.250249398352	0.001
14	219810	68.300249398352	0.002
14	219817	68.350249398352	0.001
14	219901	68.400249398352	0.002
14	219908	68.450249398352	0.001
14	219992	68.500249398352	0.002
14	219999	68.550249398352	0.001
14	220083	68.600249398352	0.002
14	220090	68.650249398352	0.001
14	220174	68.700249398352	0.002
14	220181	68.750249398352	0.001
14	220265	68.800249398352	0.002
14	220272	68.850249398352	0.001
14	220356	68.900249398352	0.002
14	220363	68.950249398352	0.001
14	220447	69.000249398352	0.002
14	220454	69.050249398352	0.001
14	220538	69.100249398352	0.002
14	220545	69.150249398352	0.001
14	220629	69.200249398352	0.002
14	220636	69.250249398352	0.001
14	220720	69.300249398352	0.002
14	220727	69.350249398352	0.001
14	220811	69.400249398352	0.002
14	220818	69.450249398352	0.001
14	220902	69.500249398352	0.002
14	220909	69.550249398352	0.001
14	220993	69.600249398352	0.002
14	221000	69.650249398352	0.001
14	221084	69.700249398352	0.002
14	221091	69.750249398352	0.001
14	221175	69.800249398352	0.002
14	221182	69.850249398352	0.001
14	221266	69.900249398352	0.002
14	221273	69.950249398352	0.001
14	221357	70.000249398352	0.002
14	221364	70.050249398352	0.001
14	221448	70.100249398352	0.002
14	221455	70.150249398352	0.001
14	221539	70.200249398352	0.002
14	221546	70.250249398352	0.001
14	221630	70.300249398352	0.002
14	221637	70.350249398352	0.001
14	221721	70.400249398352	0.002
14	221728	70.450249398352	0.001
14	221812	70.500249398352	0.002
14	221819	70.550249398352	0.001
14	221903	70.600249398352	0.002
14	221910	70.650249398352	0.001
14	221994	70.700249398352	0.002
14	222001	70.750249398352	0.001
14	222084	70.800249398352	0.002
14	222088	70.850249398352	0.001
14	222119	70.900249398352	0.002
14	222123	70.950249398352	0.001
14	222154	71.000249398352	0.002
14	222158	71.050249398352	0.001
14	222189	71.100249398352	0.002
14	222193	71.150249398352	0.001
14	222224	71.200249398352	0.002
14	222228	71.250249398352	0.001
14	222259	71.300249398352	0.002
14	222263	71.350249398352	0.001
14	222294	71.400249398352	0.002
14	222298	71.450249398352	0.001
14	222329	71.500249398352	0.002
14	222333	71.550249398352	0.001
14	222364	71.600249398352	0.002
14	222368	71.650249398352	0.001
14	222399	71.700249398352	0.002
14	222403	71.750249398352	0.001
14	222434	71.800249398352	0.002
14	222438	71.850249398352	0.001
14	222469	71.900249398352	0.002
14	222473	71.950249398352	0.001
14	222504	72.000249398352	0.002
14	222508	72.050249398352	0.001
14	222539	72.100249398352	0.002
14	222543	72.150249398352	0.001
14	222574	72.200249398352	0.002
14	222578	72.250249398352	0.001
14	222609	72.300249398352	0.002
14	222613	72.350249398352	0.001
14	222644	72.400249398352	0.002
14	222648	72.450249398352	0.001
14	222679	72.500249398352	0.002
14	222683	72.550249398352	0.001
14	222714	72.600249398352	0.002
14	222718	72.650249398352	0.001
14	222749	72.700249398352	0.002
14	222753	72.750249398352	0.001
14	222784	72.800249398352	0.002
14	222788	72.850249398352	0.001
14	222819	72.900249398352	0.002
14	222823	72.950249398352	0.001
14	222854	73.000249398352	0.002
14	222858	73.050249398352	0.001
14	222889	73.100249398352	0.002
14	222893	73.150249398352	0.001
14	222924	73.200249398352	0.002
14	222928	73.250249398352	0.001
14	222959	73.300249398352	0.002
14	222963	73.350249398352	0.001
14	222994	73.400249398352	0.002
14	222998	73.450249398352	0.001
14	223029	73.500249398352	0.002
14	223033	73.550249398352	0.001
14	223063	73.600249398352	0.002
14	223064	73.650249398352	0.001
14	223065	73.700249398352	0.002
14	223066	73.750249398352	0.001
14	223067	73.800249398352	0.002
14	223068	73.850249398352	0.001
14	223069	73.900249398352	0.002
14	223070	73.950249398352	0.001
14	223071	74.000249398352	0.002
14	223072	74.050249398352	0.001
14	223073	74.100249398352	0.002
14	223074	74.150249398352	0.001
14	223075	74.200249398352	0.002
14	223076	74.250249398352	0.001
14	223077	74.300249398352	0.002
14	223078	74.350249398352	0.001
14	223079	74.400249398352	0.002
14	223080	74.450249398352	0.001
14	223081	74.500249398352	0.002
14	223082	74.550249398352	0.001
14	223083	74.600249398352	0.002
14	223084	74.650249398352	0.001
14	223085	74.700249398352	0.002
14	223086	74.750249398352	0.001
14	223087	74.800249398352	0.002
14	223088	74.850249398352	0.001
14	223089	74.900249398352	0.002
14	223090	74.950249398352	0.001
14	223091	75.000249398352	0.002
14	223092	75.050249398352	0.001
14	223093	75.100249398352	0.002
14	223094	75.150249398352	0.001
14	223095	75.200249398352	0.002
14	223096	75.250249398352	0.001
14	223097	75.300249398352	0.002
14	223098	75.350249398352	0.001
14	223099	75.400249398352	0.002
14	223100	75.450249398352	0.001
14	223101	75.500249398352	0.002
14	223102	75.550249398352	0.001
14	223103	75.600249398352	0.002
14	223104	75.650249398352	0.001
14	223105	75.700249398352	0.002
14	223106	75.750249398352	0.001
14	223107	75.800249398352	0.002
14	223108	75.850249398352	0.001
14	223109	75.900249398352	0.002
14	223110	75.950249398352	0.001
