version 2
run VoIP-50ms_440B-2-20160923-14:15:52-14720
attr configname VoIP-50ms_440B
attr datetime 20160923-14:15:52
attr experiment VoIP-50ms_440B
attr inifile omnetpp.ini
attr iterationvars ""
attr iterationvars2 $repetition=2
attr measurement ""
attr network SymScenerio
attr processid 14720
attr repetition 2
attr replication #2
attr resultdir results
attr runnumber 2
attr seedset 2
param **.coreDebug false
param **.debug false
param *.**.nic.mac1609_4.bitrate 18Mbps
param *.**.nic.mac1609_4.txPower 20mW
param *.**.nic.mac1609_4.useServiceChannel true
param *.**.nic.phy80211p.analogueModels "xmldoc(\"config.xml\")"
param *.**.nic.phy80211p.decider "xmldoc(\"config.xml\")"
param *.**.nic.phy80211p.sensitivity -89dBm
param *.**.nic.phy80211p.thermalNoise -110dBm
param *.**.nic.phy80211p.usePropagationDelay true
param *.**.nic.phy80211p.useThermalNoise true
param *.annotations.draw false
param *.connectionManager.alpha 2.0
param *.connectionManager.carrierFrequency "5.890e9 Hz"
param *.connectionManager.pMax 20mW
param *.connectionManager.sat -89dBm
param *.connectionManager.sendDirect true
param *.manager.autoShutdown true
param *.manager.host "\"localhost\""
param *.manager.launchConfig "xmldoc(\"map.launchd.xml\")"
param *.manager.margin 25
param *.manager.moduleDisplayString "\"\""
param *.manager.moduleName "\"node\""
param *.manager.moduleType "\"symulacja.veins.nodes.Car\""
param *.manager.port 9999
param *.manager.updateInterval 0.1s
param *.node[*].appl.beaconInterval 1s
param *.node[*].appl.beaconPriority 3
param *.node[*].appl.dataOnSch false
param *.node[*].appl.dataPriority 2
param *.node[*].appl.debug false
param *.node[*].appl.maxOffset 0.005s
param *.node[*].appl.sendBeacons false
param *.node[*].appl.sendData true
param *.node[*].appl.sendVoIP true
param *.node[*].appl.voipInterval 0.050s
param *.node[*].appl.voipLengthBits 3520bit
param *.node[*].appl.voipOnSch true
param *.node[*].appl.voipPriority 3
param *.node[*].applType "\"Sym11p\""
param *.node[*].veinsmobility.x 0
param *.node[*].veinsmobility.y 0
param *.node[*].veinsmobility.z 1.895
param *.node[*].veinsmobilityType "\"symulacja.veins.modules.mobility.traci.TraCIMobility\""
param *.playgroundSizeX 9000m
param *.playgroundSizeY 9000m
param *.playgroundSizeZ 50m
param *.rsu[*].appl.beaconInterval 1s
param *.rsu[*].appl.beaconPriority 3
param *.rsu[*].appl.dataOnSch false
param *.rsu[*].appl.dataPriority 2
param *.rsu[*].appl.debug false
param *.rsu[*].appl.headerLength "256 bit"
param *.rsu[*].appl.maxOffset 0.005s
param *.rsu[*].appl.sendBeacons false
param *.rsu[*].appl.sendData false
param *.rsu[*].appl.sendVoIP false
param *.rsu[*].applType "\"SymRSU11p\""
param *.rsu[0].mobility.x 2160
param *.rsu[0].mobility.y 3100
param *.rsu[0].mobility.z 3
param *.world.use2D false
param *.world.useTorus false

vector 14  SymScenerio.rsu[0].nic.mac1609_4  "Interwały kanałów"  ETV
vector 23  SymScenerio.node[0].veinsmobility  posx  ETV
vector 24  SymScenerio.node[0].veinsmobility  posy  ETV
vector 22  SymScenerio.node[0].nic.mac1609_4  "Interwały kanałów"  ETV
vector 25  SymScenerio.node[0].veinsmobility  speed  ETV
vector 26  SymScenerio.node[0].veinsmobility  acceleration  ETV
vector 27  SymScenerio.node[0].veinsmobility  co2emission  ETV
vector 15  SymScenerio.node[0].appl  "TX Packets"  ETV
vector 16  SymScenerio.node[0].appl  "TX Total"  ETV
vector 17  SymScenerio.node[0].appl  Pakietyzacja  ETV
vector 5  SymScenerio.rsu[0].appl  nodeALL:vector  ETV
attr source  nodeALL
attr title  "Opoznienia ALL, vector"
vector 9  SymScenerio.rsu[0].appl  "RX Packet"  ETV
vector 0  SymScenerio.rsu[0].appl  node0:vector  ETV
attr source  node0
attr title  "Opoznienia node0, vector"
vector 36  SymScenerio.node[1].veinsmobility  posx  ETV
vector 37  SymScenerio.node[1].veinsmobility  posy  ETV
vector 35  SymScenerio.node[1].nic.mac1609_4  "Interwały kanałów"  ETV
vector 38  SymScenerio.node[1].veinsmobility  speed  ETV
vector 39  SymScenerio.node[1].veinsmobility  acceleration  ETV
vector 40  SymScenerio.node[1].veinsmobility  co2emission  ETV
vector 28  SymScenerio.node[1].appl  "TX Packets"  ETV
vector 29  SymScenerio.node[1].appl  "TX Total"  ETV
vector 30  SymScenerio.node[1].appl  Pakietyzacja  ETV
vector 1  SymScenerio.rsu[0].appl  node1:vector  ETV
attr source  node1
attr title  "Opoznienia node1, vector"
vector 49  SymScenerio.node[2].veinsmobility  posx  ETV
vector 50  SymScenerio.node[2].veinsmobility  posy  ETV
vector 48  SymScenerio.node[2].nic.mac1609_4  "Interwały kanałów"  ETV
vector 51  SymScenerio.node[2].veinsmobility  speed  ETV
vector 52  SymScenerio.node[2].veinsmobility  acceleration  ETV
vector 53  SymScenerio.node[2].veinsmobility  co2emission  ETV
vector 41  SymScenerio.node[2].appl  "TX Packets"  ETV
vector 42  SymScenerio.node[2].appl  "TX Total"  ETV
vector 43  SymScenerio.node[2].appl  Pakietyzacja  ETV
vector 2  SymScenerio.rsu[0].appl  node2:vector  ETV
attr source  node2
attr title  "Opoznienia node2, vector"
vector 62  SymScenerio.node[3].veinsmobility  posx  ETV
vector 63  SymScenerio.node[3].veinsmobility  posy  ETV
vector 61  SymScenerio.node[3].nic.mac1609_4  "Interwały kanałów"  ETV
vector 64  SymScenerio.node[3].veinsmobility  speed  ETV
vector 65  SymScenerio.node[3].veinsmobility  acceleration  ETV
vector 66  SymScenerio.node[3].veinsmobility  co2emission  ETV
vector 54  SymScenerio.node[3].appl  "TX Packets"  ETV
vector 55  SymScenerio.node[3].appl  "TX Total"  ETV
vector 56  SymScenerio.node[3].appl  Pakietyzacja  ETV
vector 3  SymScenerio.rsu[0].appl  node3:vector  ETV
attr source  node3
attr title  "Opoznienia node3, vector"
vector 75  SymScenerio.node[4].veinsmobility  posx  ETV
vector 76  SymScenerio.node[4].veinsmobility  posy  ETV
vector 74  SymScenerio.node[4].nic.mac1609_4  "Interwały kanałów"  ETV
vector 77  SymScenerio.node[4].veinsmobility  speed  ETV
vector 78  SymScenerio.node[4].veinsmobility  acceleration  ETV
vector 79  SymScenerio.node[4].veinsmobility  co2emission  ETV
vector 67  SymScenerio.node[4].appl  "TX Packets"  ETV
vector 68  SymScenerio.node[4].appl  "TX Total"  ETV
vector 69  SymScenerio.node[4].appl  Pakietyzacja  ETV
vector 4  SymScenerio.rsu[0].appl  node4:vector  ETV
attr source  node4
attr title  "Opoznienia node4, vector"
17	27	0.560183900781	1.002
17	45	0.610183900781	1.002
17	62	0.660183900781	1.002
17	80	0.710183900781	1.002
17	97	0.760183900781	1.002
17	115	0.810183900781	1.002
17	132	0.860183900781	1.002
17	150	0.910183900781	1.002
17	167	0.960183900781	1.002
17	185	1.010183900781	1.002
17	202	1.060183900781	1.002
17	220	1.110183900781	1.002
17	237	1.160183900781	1.002
17	255	1.210183900781	1.002
17	272	1.260183900781	1.002
17	290	1.310183900781	1.002
17	307	1.360183900781	1.002
17	325	1.410183900781	1.002
17	342	1.460183900781	1.002
17	360	1.510183900781	1.002
17	377	1.560183900781	1.002
17	395	1.610183900781	1.002
17	412	1.660183900781	1.002
17	430	1.710183900781	1.002
17	447	1.760183900781	1.002
17	465	1.810183900781	1.002
17	482	1.860183900781	1.002
17	500	1.910183900781	1.002
17	517	1.960183900781	1.002
17	535	2.010183900781	1.002
17	552	2.060183900781	1.002
17	570	2.110183900781	1.002
17	587	2.160183900781	1.002
17	605	2.210183900781	1.002
17	622	2.260183900781	1.002
17	640	2.310183900781	1.002
17	657	2.360183900781	1.002
17	675	2.410183900781	1.002
17	692	2.460183900781	1.002
17	710	2.510183900781	1.002
17	727	2.560183900781	1.002
17	745	2.610183900781	1.002
17	762	2.660183900781	1.002
17	780	2.710183900781	1.002
17	797	2.760183900781	1.002
17	815	2.810183900781	1.002
17	832	2.860183900781	1.002
17	850	2.910183900781	1.002
17	867	2.960183900781	1.002
17	885	3.010183900781	1.002
17	902	3.060183900781	1.002
17	920	3.110183900781	1.002
17	944	3.160183900781	1.002
17	969	3.210183900781	1.002
17	993	3.260183900781	1.002
17	1018	3.310183900781	1.002
17	1042	3.360183900781	1.002
17	1067	3.410183900781	1.002
17	1091	3.460183900781	1.002
17	1116	3.510183900781	1.002
17	1140	3.560183900781	1.002
17	1165	3.610183900781	1.002
17	1189	3.660183900781	1.002
17	1214	3.710183900781	1.002
17	1238	3.760183900781	1.002
17	1284	3.810183900781	1.002
17	1329	3.860183900781	1.002
17	1375	3.910183900781	1.002
17	1420	3.960183900781	1.002
17	1466	4.010183900781	1.002
17	1511	4.060183900781	1.002
17	1557	4.110183900781	1.002
17	1602	4.160183900781	1.002
17	1648	4.210183900781	1.002
17	1693	4.260183900781	1.002
17	1739	4.310183900781	1.002
17	1784	4.360183900781	1.002
17	1830	4.410183900781	1.002
17	1875	4.460183900781	1.002
17	1921	4.510183900781	1.002
17	1966	4.560183900781	1.002
17	2012	4.610183900781	1.002
17	2057	4.660183900781	1.002
17	2103	4.710183900781	1.002
17	2148	4.760183900781	1.002
17	2194	4.810183900781	1.002
17	2239	4.860183900781	1.002
17	2285	4.910183900781	1.002
17	2330	4.960183900781	1.002
17	2376	5.010183900781	1.002
17	2421	5.060183900781	1.002
17	2467	5.110183900781	1.002
17	2512	5.160183900781	1.002
17	2558	5.210183900781	1.002
17	2603	5.260183900781	1.002
17	2649	5.310183900781	1.002
17	2694	5.360183900781	1.002
17	2740	5.410183900781	1.002
17	2785	5.460183900781	1.002
17	2831	5.510183900781	1.002
17	2876	5.560183900781	1.002
17	2922	5.610183900781	1.002
17	2967	5.660183900781	1.002
17	3013	5.710183900781	1.002
17	3058	5.760183900781	1.002
17	3104	5.810183900781	1.002
17	3149	5.860183900781	1.002
17	3195	5.910183900781	1.002
17	3240	5.960183900781	1.002
17	3286	6.010183900781	1.002
17	3331	6.060183900781	1.002
17	3377	6.110183900781	1.002
17	3435	6.160183900781	1.002
17	3494	6.210183900781	1.002
17	3552	6.260183900781	1.002
17	3611	6.310183900781	1.002
17	3669	6.360183900781	1.002
17	3755	6.410183900781	1.002
17	3840	6.460183900781	1.002
17	3926	6.510183900781	1.002
17	4011	6.560183900781	1.002
17	4097	6.610183900781	1.002
17	4172	6.660183900781	1.002
17	4258	6.710183900781	1.002
17	4333	6.760183900781	1.002
17	4419	6.810183900781	1.002
17	4504	6.860183900781	1.002
17	4590	6.910183900781	1.002
17	4675	6.960183900781	1.002
17	4761	7.010183900781	1.002
17	4846	7.060183900781	1.002
17	4932	7.110183900781	1.002
17	5017	7.160183900781	1.002
17	5103	7.210183900781	1.002
17	5178	7.260183900781	1.002
17	5264	7.310183900781	1.002
17	5349	7.360183900781	1.002
17	5435	7.410183900781	1.002
17	5520	7.460183900781	1.002
17	5606	7.510183900781	1.002
17	5691	7.560183900781	1.002
17	5777	7.610183900781	1.002
17	5862	7.660183900781	1.002
17	5948	7.710183900781	1.002
17	6033	7.760183900781	1.002
17	6119	7.810183900781	1.002
17	6194	7.860183900781	1.002
17	6280	7.910183900781	1.002
17	6365	7.960183900781	1.002
17	6451	8.010183900781	1.002
17	6536	8.060183900781	1.002
17	6622	8.110183900781	1.002
17	6707	8.160183900781	1.002
17	6793	8.210183900781	1.002
17	6878	8.260183900781	1.002
17	6964	8.310183900781	1.002
17	7039	8.360183900781	1.002
17	7125	8.410183900781	1.002
17	7210	8.460183900781	1.002
17	7296	8.510183900781	1.002
17	7381	8.560183900781	1.002
17	7467	8.610183900781	1.002
17	7552	8.660183900781	1.002
17	7638	8.710183900781	1.002
17	7723	8.760183900781	1.002
17	7809	8.810183900781	1.002
17	7894	8.860183900781	1.002
17	7980	8.910183900781	1.002
17	8065	8.960183900781	1.002
17	8151	9.010183900781	1.002
17	8236	9.060183900781	1.002
17	8322	9.110183900781	1.002
17	8413	9.160183900781	1.002
17	8518	9.210183900781	1.002
17	8622	9.260183900781	1.002
17	8727	9.310183900781	1.002
17	8831	9.360183900781	1.002
17	8936	9.410183900781	1.002
17	9040	9.460183900781	1.002
17	9145	9.510183900781	1.002
17	9249	9.560183900781	1.002
17	9354	9.610183900781	1.002
17	9458	9.660183900781	1.002
17	9563	9.710183900781	1.002
17	9667	9.760183900781	1.002
17	9772	9.810183900781	1.002
17	9863	9.860183900781	1.002
17	9968	9.910183900781	1.002
17	10072	9.960183900781	1.002
17	10177	10.010183900781	1.002
17	10281	10.060183900781	1.002
17	10419	10.110183900781	1.002
17	10543	10.160183900781	1.002
17	10681	10.210183900781	1.002
17	10805	10.260183900781	1.002
17	10943	10.310183900781	1.002
17	11080	10.360183900781	1.002
17	11218	10.410183900781	1.002
17	11355	10.460183900781	1.002
17	11493	10.510183900781	1.002
17	11617	10.560183900781	1.002
17	11755	10.610183900781	1.002
17	11879	10.660183900781	1.002
17	12017	10.710183900781	1.002
17	12141	10.760183900781	1.002
17	12279	10.810183900781	1.002
17	12416	10.860183900781	1.002
17	12554	10.910183900781	1.002
17	12691	10.960183900781	1.002
17	12829	11.010183900781	1.002
17	12953	11.060183900781	1.002
17	13091	11.110183900781	1.002
17	13215	11.160183900781	1.002
17	13353	11.210183900781	1.002
17	13477	11.260183900781	1.002
17	13615	11.310183900781	1.002
17	13752	11.360183900781	1.002
17	13890	11.410183900781	1.002
17	14027	11.460183900781	1.002
17	14165	11.510183900781	1.002
17	14289	11.560183900781	1.002
17	14427	11.610183900781	1.002
17	14551	11.660183900781	1.002
17	14689	11.710183900781	1.002
17	14813	11.760183900781	1.002
17	14951	11.810183900781	1.002
17	15075	11.860183900781	1.002
17	15213	11.910183900781	1.002
17	15328	11.960183900781	1.002
17	15466	12.010183900781	1.002
17	15590	12.060183900781	1.002
17	15728	12.110183900781	1.002
17	15875	12.160183900781	1.002
17	16038	12.210183900781	1.002
17	16185	12.260183900781	1.002
17	16348	12.310183900781	1.002
17	16495	12.360183900781	1.002
17	16658	12.410183900781	1.002
17	16805	12.460183900781	1.002
17	16968	12.510183900781	1.002
17	17130	12.560183900781	1.002
17	17332	12.610183900781	1.002
17	17517	12.660183900781	1.002
17	17719	12.710183900781	1.002
17	17904	12.760183900781	1.002
17	18106	12.810183900781	1.002
17	18291	12.860183900781	1.002
17	18493	12.910183900781	1.002
17	18679	12.960183900781	1.002
17	18881	13.010183900781	1.002
17	19066	13.060183900781	1.002
17	19268	13.110183900781	1.002
17	19453	13.160183900781	1.002
17	19655	13.210183900781	1.002
17	19829	13.260183900781	1.002
17	20031	13.310183900781	1.002
17	20216	13.360183900781	1.002
17	20418	13.410183900781	1.002
17	20603	13.460183900781	1.002
17	20805	13.510183900781	1.002
17	20979	13.560183900781	1.002
17	21181	13.610183900781	1.002
17	21366	13.660183900781	1.002
17	21568	13.710183900781	1.002
17	21753	13.760183900781	1.002
17	21955	13.810183900781	1.002
17	22156	13.860183900781	1.002
17	22358	13.910183900781	1.002
17	22532	13.960183900781	1.002
17	22734	14.010183900781	1.002
17	22919	14.060183900781	1.002
17	23121	14.110183900781	1.002
17	23322	14.160183900781	1.002
17	23524	14.210183900781	1.002
17	23693	14.260183900781	1.002
17	23895	14.310183900781	1.002
17	24064	14.360183900781	1.002
17	24266	14.410183900781	1.002
17	24451	14.460183900781	1.002
17	24653	14.510183900781	1.002
17	24838	14.560183900781	1.002
17	25040	14.610183900781	1.002
17	25225	14.660183900781	1.002
17	25427	14.710183900781	1.002
17	25596	14.760183900781	1.002
17	25798	14.810183900781	1.002
17	25983	14.860183900781	1.002
17	26185	14.910183900781	1.002
17	26370	14.960183900781	1.002
17	26572	15.010183900781	1.002
17	26757	15.060183900781	1.002
17	26959	15.110183900781	1.002
17	27144	15.160183900781	1.002
17	27346	15.210183900781	1.002
17	27531	15.260183900781	1.002
17	27733	15.310183900781	1.002
17	27902	15.360183900781	1.002
17	28104	15.410183900781	1.002
17	28267	15.460183900781	1.002
17	28469	15.510183900781	1.002
17	28654	15.560183900781	1.002
17	28856	15.610183900781	1.002
17	29025	15.660183900781	1.002
17	29227	15.710183900781	1.002
17	29401	15.760183900781	1.002
17	29603	15.810183900781	1.002
17	29788	15.860183900781	1.002
17	29990	15.910183900781	1.002
17	30175	15.960183900781	1.002
17	30377	16.010183900781	1.002
17	30551	16.060183900781	1.002
17	30753	16.110183900781	1.002
17	30938	16.160183900781	1.002
17	31140	16.210183900781	1.002
17	31314	16.260183900781	1.002
17	31516	16.310183900781	1.002
17	31701	16.360183900781	1.002
17	31903	16.410183900781	1.002
17	32077	16.460183900781	1.002
17	32279	16.510183900781	1.002
17	32464	16.560183900781	1.002
17	32666	16.610183900781	1.002
17	32851	16.660183900781	1.002
17	33053	16.710183900781	1.002
17	33238	16.760183900781	1.002
17	33440	16.810183900781	1.002
17	33625	16.860183900781	1.002
17	33827	16.910183900781	1.002
17	34001	16.960183900781	1.002
17	34203	17.010183900781	1.002
17	34377	17.060183900781	1.002
17	34579	17.110183900781	1.002
17	34780	17.160183900781	1.002
17	34982	17.210183900781	1.002
17	35167	17.260183900781	1.002
17	35369	17.310183900781	1.002
17	35554	17.360183900781	1.002
17	35756	17.410183900781	1.002
17	35925	17.460183900781	1.002
17	36127	17.510183900781	1.002
17	36312	17.560183900781	1.002
17	36514	17.610183900781	1.002
17	36699	17.660183900781	1.002
17	36901	17.710183900781	1.002
17	37075	17.760183900781	1.002
17	37277	17.810183900781	1.002
17	37462	17.860183900781	1.002
17	37664	17.910183900781	1.002
17	37838	17.960183900781	1.002
17	38040	18.010183900781	1.002
17	38225	18.060183900781	1.002
17	38427	18.110183900781	1.002
17	38601	18.160183900781	1.002
17	38803	18.210183900781	1.002
17	38988	18.260183900781	1.002
17	39190	18.310183900781	1.002
17	39375	18.360183900781	1.002
17	39577	18.410183900781	1.002
17	39746	18.460183900781	1.002
17	39948	18.510183900781	1.002
17	40117	18.560183900781	1.002
17	40319	18.610183900781	1.002
17	40504	18.660183900781	1.002
17	40706	18.710183900781	1.002
17	40891	18.760183900781	1.002
17	41093	18.810183900781	1.002
17	41267	18.860183900781	1.002
17	41469	18.910183900781	1.002
17	41638	18.960183900781	1.002
17	41840	19.010183900781	1.002
17	42025	19.060183900781	1.002
17	42227	19.110183900781	1.002
17	42396	19.160183900781	1.002
17	42598	19.210183900781	1.002
17	42783	19.260183900781	1.002
17	42985	19.310183900781	1.002
17	43170	19.360183900781	1.002
17	43372	19.410183900781	1.002
17	43557	19.460183900781	1.002
17	43759	19.510183900781	1.002
17	43928	19.560183900781	1.002
17	44130	19.610183900781	1.002
17	44304	19.660183900781	1.002
17	44506	19.710183900781	1.002
17	44691	19.760183900781	1.002
17	44893	19.810183900781	1.002
17	45062	19.860183900781	1.002
17	45264	19.910183900781	1.002
17	45449	19.960183900781	1.002
17	45651	20.010183900781	1.002
17	45820	20.060183900781	1.002
17	46022	20.110183900781	1.002
17	46196	20.160183900781	1.002
17	46398	20.210183900781	1.002
17	46572	20.260183900781	1.002
17	46774	20.310183900781	1.002
17	46959	20.360183900781	1.002
17	47161	20.410183900781	1.002
17	47346	20.460183900781	1.002
17	47548	20.510183900781	1.002
17	47717	20.560183900781	1.002
17	47919	20.610183900781	1.002
17	48104	20.660183900781	1.002
17	48306	20.710183900781	1.002
17	48491	20.760183900781	1.002
17	48693	20.810183900781	1.002
17	48878	20.860183900781	1.002
17	49080	20.910183900781	1.002
17	49281	20.960183900781	1.002
17	49483	21.010183900781	1.002
17	49668	21.060183900781	1.002
17	49870	21.110183900781	1.002
17	50055	21.160183900781	1.002
17	50257	21.210183900781	1.002
17	50431	21.260183900781	1.002
17	50633	21.310183900781	1.002
17	50818	21.360183900781	1.002
17	51020	21.410183900781	1.002
17	51205	21.460183900781	1.002
17	51407	21.510183900781	1.002
17	51581	21.560183900781	1.002
17	51783	21.610183900781	1.002
17	51968	21.660183900781	1.002
17	52170	21.710183900781	1.002
17	52355	21.760183900781	1.002
17	52557	21.810183900781	1.002
17	52742	21.860183900781	1.002
17	52944	21.910183900781	1.002
17	53145	21.960183900781	1.002
17	53347	22.010183900781	1.002
17	53516	22.060183900781	1.002
17	53718	22.110183900781	1.002
17	53903	22.160183900781	1.002
17	54105	22.210183900781	1.002
17	54290	22.260183900781	1.002
17	54492	22.310183900781	1.002
17	54677	22.360183900781	1.002
17	54879	22.410183900781	1.002
17	55080	22.460183900781	1.002
17	55282	22.510183900781	1.002
17	55451	22.560183900781	1.002
17	55653	22.610183900781	1.002
17	55838	22.660183900781	1.002
17	56040	22.710183900781	1.002
17	56225	22.760183900781	1.002
17	56427	22.810183900781	1.002
17	56612	22.860183900781	1.002
17	56814	22.910183900781	1.002
17	56999	22.960183900781	1.002
17	57201	23.010183900781	1.002
17	57375	23.060183900781	1.002
17	57577	23.110183900781	1.002
17	57762	23.160183900781	1.002
17	57964	23.210183900781	1.002
17	58133	23.260183900781	1.002
17	58335	23.310183900781	1.002
17	58520	23.360183900781	1.002
17	58722	23.410183900781	1.002
17	58907	23.460183900781	1.002
17	59109	23.510183900781	1.002
17	59294	23.560183900781	1.002
17	59496	23.610183900781	1.002
17	59670	23.660183900781	1.002
17	59872	23.710183900781	1.002
17	60046	23.760183900781	1.002
17	60248	23.810183900781	1.002
17	60433	23.860183900781	1.002
17	60635	23.910183900781	1.002
17	60836	23.960183900781	1.002
17	61038	24.010183900781	1.002
17	61223	24.060183900781	1.002
17	61425	24.110183900781	1.002
17	61626	24.160183900781	1.002
17	61828	24.210183900781	1.002
17	62002	24.260183900781	1.002
17	62204	24.310183900781	1.002
17	62389	24.360183900781	1.002
17	62591	24.410183900781	1.002
17	62792	24.460183900781	1.002
17	62994	24.510183900781	1.002
17	63168	24.560183900781	1.002
17	63370	24.610183900781	1.002
17	63571	24.660183900781	1.002
17	63773	24.710183900781	1.002
17	63958	24.760183900781	1.002
17	64160	24.810183900781	1.002
17	64334	24.860183900781	1.002
17	64536	24.910183900781	1.002
17	64721	24.960183900781	1.002
17	64923	25.010183900781	1.002
17	65108	25.060183900781	1.002
17	65310	25.110183900781	1.002
17	65479	25.160183900781	1.002
17	65681	25.210183900781	1.002
17	65866	25.260183900781	1.002
17	66068	25.310183900781	1.002
17	66253	25.360183900781	1.002
17	66455	25.410183900781	1.002
17	66656	25.460183900781	1.002
17	66858	25.510183900781	1.002
17	67043	25.560183900781	1.002
17	67245	25.610183900781	1.002
17	67419	25.660183900781	1.002
17	67621	25.710183900781	1.002
17	67790	25.760183900781	1.002
17	67992	25.810183900781	1.002
17	68177	25.860183900781	1.002
17	68379	25.910183900781	1.002
17	68564	25.960183900781	1.002
17	68766	26.010183900781	1.002
17	68940	26.060183900781	1.002
17	69142	26.110183900781	1.002
17	69343	26.160183900781	1.002
17	69545	26.210183900781	1.002
17	69730	26.260183900781	1.002
17	69932	26.310183900781	1.002
17	70106	26.360183900781	1.002
17	70308	26.410183900781	1.002
17	70493	26.460183900781	1.002
17	70695	26.510183900781	1.002
17	70869	26.560183900781	1.002
17	71071	26.610183900781	1.002
17	71234	26.660183900781	1.002
17	71436	26.710183900781	1.002
17	71605	26.760183900781	1.002
17	71807	26.810183900781	1.002
17	71981	26.860183900781	1.002
17	72183	26.910183900781	1.002
17	72368	26.960183900781	1.002
17	72570	27.010183900781	1.002
17	72744	27.060183900781	1.002
17	72946	27.110183900781	1.002
17	73131	27.160183900781	1.002
17	73333	27.210183900781	1.002
17	73507	27.260183900781	1.002
17	73709	27.310183900781	1.002
17	73910	27.360183900781	1.002
17	74112	27.410183900781	1.002
17	74297	27.460183900781	1.002
17	74499	27.510183900781	1.002
17	74700	27.560183900781	1.002
17	74902	27.610183900781	1.002
17	75076	27.660183900781	1.002
17	75278	27.710183900781	1.002
17	75447	27.760183900781	1.002
17	75649	27.810183900781	1.002
17	75823	27.860183900781	1.002
17	76025	27.910183900781	1.002
17	76210	27.960183900781	1.002
17	76412	28.010183900781	1.002
17	76581	28.060183900781	1.002
17	76783	28.110183900781	1.002
17	76968	28.160183900781	1.002
17	77170	28.210183900781	1.002
17	77339	28.260183900781	1.002
17	77541	28.310183900781	1.002
17	77726	28.360183900781	1.002
17	77928	28.410183900781	1.002
17	78113	28.460183900781	1.002
17	78315	28.510183900781	1.002
17	78500	28.560183900781	1.002
17	78702	28.610183900781	1.002
17	78876	28.660183900781	1.002
17	79078	28.710183900781	1.002
17	79263	28.760183900781	1.002
17	79465	28.810183900781	1.002
17	79639	28.860183900781	1.002
17	79841	28.910183900781	1.002
17	80010	28.960183900781	1.002
17	80212	29.010183900781	1.002
17	80397	29.060183900781	1.002
17	80599	29.110183900781	1.002
17	80784	29.160183900781	1.002
17	80986	29.210183900781	1.002
17	81187	29.260183900781	1.002
17	81389	29.310183900781	1.002
17	81558	29.360183900781	1.002
17	81760	29.410183900781	1.002
17	81961	29.460183900781	1.002
17	82163	29.510183900781	1.002
17	82332	29.560183900781	1.002
17	82534	29.610183900781	1.002
17	82703	29.660183900781	1.002
17	82905	29.710183900781	1.002
17	83106	29.760183900781	1.002
17	83308	29.810183900781	1.002
17	83493	29.860183900781	1.002
17	83695	29.910183900781	1.002
17	83896	29.960183900781	1.002
17	84098	30.010183900781	1.002
17	84272	30.060183900781	1.002
17	84474	30.110183900781	1.002
17	84659	30.160183900781	1.002
17	84861	30.210183900781	1.002
17	85046	30.260183900781	1.002
17	85248	30.310183900781	1.002
17	85433	30.360183900781	1.002
17	85635	30.410183900781	1.002
17	85798	30.460183900781	1.002
17	86000	30.510183900781	1.002
17	86185	30.560183900781	1.002
17	86387	30.610183900781	1.002
17	86556	30.660183900781	1.002
17	86758	30.710183900781	1.002
17	86932	30.760183900781	1.002
17	87134	30.810183900781	1.002
17	87335	30.860183900781	1.002
17	87537	30.910183900781	1.002
17	87722	30.960183900781	1.002
17	87924	31.010183900781	1.002
17	88109	31.060183900781	1.002
17	88311	31.110183900781	1.002
17	88512	31.160183900781	1.002
17	88714	31.210183900781	1.002
17	88899	31.260183900781	1.002
17	89101	31.310183900781	1.002
17	89286	31.360183900781	1.002
17	89488	31.410183900781	1.002
17	89657	31.460183900781	1.002
17	89859	31.510183900781	1.002
17	90044	31.560183900781	1.002
17	90246	31.610183900781	1.002
17	90447	31.660183900781	1.002
17	90649	31.710183900781	1.002
17	90834	31.760183900781	1.002
17	91036	31.810183900781	1.002
17	91221	31.860183900781	1.002
17	91423	31.910183900781	1.002
17	91592	31.960183900781	1.002
17	91794	32.010183900781	1.002
17	91979	32.060183900781	1.002
17	92181	32.110183900781	1.002
17	92355	32.160183900781	1.002
17	92557	32.210183900781	1.002
17	92742	32.260183900781	1.002
17	92944	32.310183900781	1.002
17	93129	32.360183900781	1.002
17	93331	32.410183900781	1.002
17	93516	32.460183900781	1.002
17	93718	32.510183900781	1.002
17	93903	32.560183900781	1.002
17	94105	32.610183900781	1.002
17	94290	32.660183900781	1.002
17	94492	32.710183900781	1.002
17	94677	32.760183900781	1.002
17	94879	32.810183900781	1.002
17	95053	32.860183900781	1.002
17	95255	32.910183900781	1.002
17	95429	32.960183900781	1.002
17	95631	33.010183900781	1.002
17	95816	33.060183900781	1.002
17	96018	33.110183900781	1.002
17	96203	33.160183900781	1.002
17	96405	33.210183900781	1.002
17	96590	33.260183900781	1.002
17	96792	33.310183900781	1.002
17	96961	33.360183900781	1.002
17	97163	33.410183900781	1.002
17	97348	33.460183900781	1.002
17	97550	33.510183900781	1.002
17	97735	33.560183900781	1.002
17	97937	33.610183900781	1.002
17	98122	33.660183900781	1.002
17	98324	33.710183900781	1.002
17	98498	33.760183900781	1.002
17	98700	33.810183900781	1.002
17	98885	33.860183900781	1.002
17	99087	33.910183900781	1.002
17	99272	33.960183900781	1.002
17	99474	34.010183900781	1.002
17	99659	34.060183900781	1.002
17	99861	34.110183900781	1.002
17	100035	34.160183900781	1.002
17	100237	34.210183900781	1.002
17	100411	34.260183900781	1.002
17	100613	34.310183900781	1.002
17	100782	34.360183900781	1.002
17	100984	34.410183900781	1.002
17	101185	34.460183900781	1.002
17	101387	34.510183900781	1.002
17	101572	34.560183900781	1.002
17	101774	34.610183900781	1.002
17	101975	34.660183900781	1.002
17	102177	34.710183900781	1.002
17	102362	34.760183900781	1.002
17	102564	34.810183900781	1.002
17	102749	34.860183900781	1.002
17	102951	34.910183900781	1.002
17	103136	34.960183900781	1.002
17	103338	35.010183900781	1.002
17	103507	35.060183900781	1.002
17	103709	35.110183900781	1.002
17	103883	35.160183900781	1.002
17	104085	35.210183900781	1.002
17	104270	35.260183900781	1.002
17	104472	35.310183900781	1.002
17	104657	35.360183900781	1.002
17	104859	35.410183900781	1.002
17	105044	35.460183900781	1.002
17	105246	35.510183900781	1.002
17	105415	35.560183900781	1.002
17	105617	35.610183900781	1.002
17	105786	35.660183900781	1.002
17	105988	35.710183900781	1.002
17	106189	35.760183900781	1.002
17	106391	35.810183900781	1.002
17	106565	35.860183900781	1.002
17	106767	35.910183900781	1.002
17	106941	35.960183900781	1.002
17	107143	36.010183900781	1.002
17	107328	36.060183900781	1.002
17	107530	36.110183900781	1.002
17	107715	36.160183900781	1.002
17	107917	36.210183900781	1.002
17	108118	36.260183900781	1.002
17	108320	36.310183900781	1.002
17	108521	36.360183900781	1.002
17	108723	36.410183900781	1.002
17	108908	36.460183900781	1.002
17	109110	36.510183900781	1.002
17	109295	36.560183900781	1.002
17	109497	36.610183900781	1.002
17	109698	36.660183900781	1.002
17	109900	36.710183900781	1.002
17	110085	36.760183900781	1.002
17	110287	36.810183900781	1.002
17	110488	36.860183900781	1.002
17	110690	36.910183900781	1.002
17	110859	36.960183900781	1.002
17	111061	37.010183900781	1.002
17	111246	37.060183900781	1.002
17	111448	37.110183900781	1.002
17	111633	37.160183900781	1.002
17	111835	37.210183900781	1.002
17	112009	37.260183900781	1.002
17	112211	37.310183900781	1.002
17	112385	37.360183900781	1.002
17	112587	37.410183900781	1.002
17	112788	37.460183900781	1.002
17	112990	37.510183900781	1.002
17	113159	37.560183900781	1.002
17	113361	37.610183900781	1.002
17	113530	37.660183900781	1.002
17	113732	37.710183900781	1.002
17	113906	37.760183900781	1.002
17	114108	37.810183900781	1.002
17	114293	37.860183900781	1.002
17	114495	37.910183900781	1.002
17	114669	37.960183900781	1.002
17	114871	38.010183900781	1.002
17	115056	38.060183900781	1.002
17	115258	38.110183900781	1.002
17	115443	38.160183900781	1.002
17	115645	38.210183900781	1.002
17	115830	38.260183900781	1.002
17	116032	38.310183900781	1.002
17	116201	38.360183900781	1.002
17	116403	38.410183900781	1.002
17	116588	38.460183900781	1.002
17	116790	38.510183900781	1.002
17	116975	38.560183900781	1.002
17	117177	38.610183900781	1.002
17	117351	38.660183900781	1.002
17	117553	38.710183900781	1.002
17	117738	38.760183900781	1.002
17	117940	38.810183900781	1.002
17	118125	38.860183900781	1.002
17	118327	38.910183900781	1.002
17	118501	38.960183900781	1.002
17	118703	39.010183900781	1.002
17	118888	39.060183900781	1.002
17	119090	39.110183900781	1.002
17	119259	39.160183900781	1.002
17	119461	39.210183900781	1.002
17	119646	39.260183900781	1.002
17	119848	39.310183900781	1.002
17	120033	39.360183900781	1.002
17	120235	39.410183900781	1.002
17	120420	39.460183900781	1.002
17	120622	39.510183900781	1.002
17	120807	39.560183900781	1.002
17	121009	39.610183900781	1.002
17	121183	39.660183900781	1.002
17	121385	39.710183900781	1.002
17	121570	39.760183900781	1.002
17	121772	39.810183900781	1.002
17	121957	39.860183900781	1.002
17	122159	39.910183900781	1.002
17	122344	39.960183900781	1.002
17	122546	40.010183900781	1.002
17	122731	40.060183900781	1.002
17	122933	40.110183900781	1.002
17	123107	40.160183900781	1.002
17	123309	40.210183900781	1.002
17	123494	40.260183900781	1.002
17	123696	40.310183900781	1.002
17	123881	40.360183900781	1.002
17	124083	40.410183900781	1.002
17	124284	40.460183900781	1.002
17	124486	40.510183900781	1.002
17	124671	40.560183900781	1.002
17	124873	40.610183900781	1.002
17	125058	40.660183900781	1.002
17	125260	40.710183900781	1.002
17	125434	40.760183900781	1.002
17	125636	40.810183900781	1.002
17	125805	40.860183900781	1.002
17	126007	40.910183900781	1.002
17	126192	40.960183900781	1.002
17	126394	41.010183900781	1.002
17	126579	41.060183900781	1.002
17	126781	41.110183900781	1.002
17	126966	41.160183900781	1.002
17	127168	41.210183900781	1.002
17	127353	41.260183900781	1.002
17	127555	41.310183900781	1.002
17	127740	41.360183900781	1.002
17	127942	41.410183900781	1.002
17	128127	41.460183900781	1.002
17	128329	41.510183900781	1.002
17	128514	41.560183900781	1.002
17	128716	41.610183900781	1.002
17	128885	41.660183900781	1.002
17	129087	41.710183900781	1.002
17	129272	41.760183900781	1.002
17	129474	41.810183900781	1.002
17	129659	41.860183900781	1.002
17	129861	41.910183900781	1.002
17	130030	41.960183900781	1.002
17	130232	42.010183900781	1.002
17	130417	42.060183900781	1.002
17	130619	42.110183900781	1.002
17	130804	42.160183900781	1.002
17	131006	42.210183900781	1.002
17	131175	42.260183900781	1.002
17	131377	42.310183900781	1.002
17	131562	42.360183900781	1.002
17	131764	42.410183900781	1.002
17	131949	42.460183900781	1.002
17	132151	42.510183900781	1.002
17	132336	42.560183900781	1.002
17	132538	42.610183900781	1.002
17	132712	42.660183900781	1.002
17	132914	42.710183900781	1.002
17	133099	42.760183900781	1.002
17	133301	42.810183900781	1.002
17	133502	42.860183900781	1.002
17	133704	42.910183900781	1.002
17	133878	42.960183900781	1.002
17	134080	43.010183900781	1.002
17	134254	43.060183900781	1.002
17	134456	43.110183900781	1.002
17	134657	43.160183900781	1.002
17	134859	43.210183900781	1.002
17	135044	43.260183900781	1.002
17	135246	43.310183900781	1.002
17	135431	43.360183900781	1.002
17	135633	43.410183900781	1.002
17	135818	43.460183900781	1.002
17	136020	43.510183900781	1.002
17	136205	43.560183900781	1.002
17	136407	43.610183900781	1.002
17	136581	43.660183900781	1.002
17	136783	43.710183900781	1.002
17	136968	43.760183900781	1.002
17	137170	43.810183900781	1.002
17	137371	43.860183900781	1.002
17	137573	43.910183900781	1.002
17	137758	43.960183900781	1.002
17	137960	44.010183900781	1.002
17	138129	44.060183900781	1.002
17	138331	44.110183900781	1.002
17	138505	44.160183900781	1.002
17	138707	44.210183900781	1.002
17	138876	44.260183900781	1.002
17	139078	44.310183900781	1.002
17	139263	44.360183900781	1.002
17	139465	44.410183900781	1.002
17	139650	44.460183900781	1.002
17	139852	44.510183900781	1.002
17	140053	44.560183900781	1.002
17	140255	44.610183900781	1.002
17	140440	44.660183900781	1.002
17	140642	44.710183900781	1.002
17	140811	44.760183900781	1.002
17	141013	44.810183900781	1.002
17	141214	44.860183900781	1.002
17	141416	44.910183900781	1.002
17	141617	44.960183900781	1.002
17	141819	45.010183900781	1.002
17	142020	45.060183900781	1.002
17	142222	45.110183900781	1.002
17	142407	45.160183900781	1.002
17	142609	45.210183900781	1.002
17	142783	45.260183900781	1.002
17	142985	45.310183900781	1.002
17	143170	45.360183900781	1.002
17	143372	45.410183900781	1.002
17	143557	45.460183900781	1.002
17	143759	45.510183900781	1.002
17	143928	45.560183900781	1.002
17	144130	45.610183900781	1.002
17	144315	45.660183900781	1.002
17	144517	45.710183900781	1.002
17	144686	45.760183900781	1.002
17	144888	45.810183900781	1.002
17	145062	45.860183900781	1.002
17	145264	45.910183900781	1.002
17	145449	45.960183900781	1.002
17	145651	46.010183900781	1.002
17	145836	46.060183900781	1.002
17	146038	46.110183900781	1.002
17	146223	46.160183900781	1.002
17	146425	46.210183900781	1.002
17	146599	46.260183900781	1.002
17	146801	46.310183900781	1.002
17	146986	46.360183900781	1.002
17	147188	46.410183900781	1.002
17	147373	46.460183900781	1.002
17	147575	46.510183900781	1.002
17	147776	46.560183900781	1.002
17	147978	46.610183900781	1.002
17	148163	46.660183900781	1.002
17	148365	46.710183900781	1.002
17	148566	46.760183900781	1.002
17	148768	46.810183900781	1.002
17	148953	46.860183900781	1.002
17	149155	46.910183900781	1.002
17	149340	46.960183900781	1.002
17	149542	47.010183900781	1.002
17	149727	47.060183900781	1.002
17	149929	47.110183900781	1.002
17	150098	47.160183900781	1.002
17	150300	47.210183900781	1.002
17	150469	47.260183900781	1.002
17	150671	47.310183900781	1.002
17	150856	47.360183900781	1.002
17	151058	47.410183900781	1.002
17	151232	47.460183900781	1.002
17	151434	47.510183900781	1.002
17	151619	47.560183900781	1.002
17	151821	47.610183900781	1.002
17	152006	47.660183900781	1.002
17	152208	47.710183900781	1.002
17	152393	47.760183900781	1.002
17	152595	47.810183900781	1.002
17	152780	47.860183900781	1.002
17	152982	47.910183900781	1.002
17	153167	47.960183900781	1.002
17	153369	48.010183900781	1.002
17	153554	48.060183900781	1.002
17	153756	48.110183900781	1.002
17	153925	48.160183900781	1.002
17	154127	48.210183900781	1.002
17	154312	48.260183900781	1.002
17	154514	48.310183900781	1.002
17	154699	48.360183900781	1.002
17	154901	48.410183900781	1.002
17	155086	48.460183900781	1.002
17	155288	48.510183900781	1.002
17	155457	48.560183900781	1.002
17	155659	48.610183900781	1.002
17	155860	48.660183900781	1.002
17	156062	48.710183900781	1.002
17	156247	48.760183900781	1.002
17	156449	48.810183900781	1.002
17	156618	48.860183900781	1.002
17	156820	48.910183900781	1.002
17	157005	48.960183900781	1.002
17	157207	49.010183900781	1.002
17	157376	49.060183900781	1.002
17	157578	49.110183900781	1.002
17	157747	49.160183900781	1.002
17	157949	49.210183900781	1.002
17	158134	49.260183900781	1.002
17	158336	49.310183900781	1.002
17	158521	49.360183900781	1.002
17	158723	49.410183900781	1.002
17	158924	49.460183900781	1.002
17	159126	49.510183900781	1.002
17	159300	49.560183900781	1.002
17	159502	49.610183900781	1.002
17	159671	49.660183900781	1.002
17	159873	49.710183900781	1.002
17	160042	49.760183900781	1.002
17	160244	49.810183900781	1.002
17	160413	49.860183900781	1.002
17	160615	49.910183900781	1.002
17	160800	49.960183900781	1.002
17	161002	50.010183900781	1.002
17	161165	50.060183900781	1.002
17	161367	50.110183900781	1.002
17	161536	50.160183900781	1.002
17	161738	50.210183900781	1.002
17	161923	50.260183900781	1.002
17	162125	50.310183900781	1.002
17	162294	50.360183900781	1.002
17	162496	50.410183900781	1.002
17	162681	50.460183900781	1.002
17	162883	50.510183900781	1.002
17	163084	50.560183900781	1.002
17	163286	50.610183900781	1.002
17	163460	50.660183900781	1.002
17	163662	50.710183900781	1.002
17	163847	50.760183900781	1.002
17	164049	50.810183900781	1.002
17	164234	50.860183900781	1.002
17	164436	50.910183900781	1.002
17	164637	50.960183900781	1.002
17	164839	51.010183900781	1.002
17	165024	51.060183900781	1.002
17	165226	51.110183900781	1.002
17	165427	51.160183900781	1.002
17	165629	51.210183900781	1.002
17	165830	51.260183900781	1.002
17	166032	51.310183900781	1.002
17	166217	51.360183900781	1.002
17	166419	51.410183900781	1.002
17	166620	51.460183900781	1.002
17	166822	51.510183900781	1.002
17	167007	51.560183900781	1.002
17	167209	51.610183900781	1.002
17	167394	51.660183900781	1.002
17	167596	51.710183900781	1.002
17	167781	51.760183900781	1.002
17	167983	51.810183900781	1.002
17	168168	51.860183900781	1.002
17	168370	51.910183900781	1.002
17	168555	51.960183900781	1.002
17	168757	52.010183900781	1.002
17	168920	52.060183900781	1.002
17	169122	52.110183900781	1.002
17	169296	52.160183900781	1.002
17	169498	52.210183900781	1.002
17	169672	52.260183900781	1.002
17	169874	52.310183900781	1.002
17	170075	52.360183900781	1.002
17	170277	52.410183900781	1.002
17	170462	52.460183900781	1.002
17	170664	52.510183900781	1.002
17	170865	52.560183900781	1.002
17	171067	52.610183900781	1.002
17	171252	52.660183900781	1.002
17	171454	52.710183900781	1.002
17	171639	52.760183900781	1.002
17	171841	52.810183900781	1.002
17	172015	52.860183900781	1.002
17	172217	52.910183900781	1.002
17	172391	52.960183900781	1.002
17	172593	53.010183900781	1.002
17	172778	53.060183900781	1.002
17	172980	53.110183900781	1.002
17	173149	53.160183900781	1.002
17	173351	53.210183900781	1.002
17	173525	53.260183900781	1.002
17	173727	53.310183900781	1.002
17	173901	53.360183900781	1.002
17	174103	53.410183900781	1.002
17	174288	53.460183900781	1.002
17	174490	53.510183900781	1.002
17	174675	53.560183900781	1.002
17	174877	53.610183900781	1.002
17	175062	53.660183900781	1.002
17	175264	53.710183900781	1.002
17	175449	53.760183900781	1.002
17	175651	53.810183900781	1.002
17	175836	53.860183900781	1.002
17	176038	53.910183900781	1.002
17	176223	53.960183900781	1.002
17	176425	54.010183900781	1.002
17	176610	54.060183900781	1.002
17	176812	54.110183900781	1.002
17	176986	54.160183900781	1.002
17	177188	54.210183900781	1.002
17	177373	54.260183900781	1.002
17	177575	54.310183900781	1.002
17	177744	54.360183900781	1.002
17	177946	54.410183900781	1.002
17	178131	54.460183900781	1.002
17	178333	54.510183900781	1.002
17	178518	54.560183900781	1.002
17	178720	54.610183900781	1.002
17	178905	54.660183900781	1.002
17	179107	54.710183900781	1.002
17	179308	54.760183900781	1.002
17	179510	54.810183900781	1.002
17	179673	54.860183900781	1.002
17	179875	54.910183900781	1.002
17	180044	54.960183900781	1.002
17	180246	55.010183900781	1.002
17	180409	55.060183900781	1.002
17	180611	55.110183900781	1.002
17	180785	55.160183900781	1.002
17	180987	55.210183900781	1.002
17	181156	55.260183900781	1.002
17	181358	55.310183900781	1.002
17	181521	55.360183900781	1.002
17	181723	55.410183900781	1.002
17	181924	55.460183900781	1.002
17	182126	55.510183900781	1.002
17	182300	55.560183900781	1.002
17	182502	55.610183900781	1.002
17	182687	55.660183900781	1.002
17	182889	55.710183900781	1.002
17	183090	55.760183900781	1.002
17	183292	55.810183900781	1.002
17	183477	55.860183900781	1.002
17	183679	55.910183900781	1.002
17	183864	55.960183900781	1.002
17	184066	56.010183900781	1.002
17	184235	56.060183900781	1.002
17	184437	56.110183900781	1.002
17	184638	56.160183900781	1.002
17	184840	56.210183900781	1.002
17	185025	56.260183900781	1.002
17	185227	56.310183900781	1.002
17	185401	56.360183900781	1.002
17	185603	56.410183900781	1.002
17	185788	56.460183900781	1.002
17	185990	56.510183900781	1.002
17	186159	56.560183900781	1.002
17	186361	56.610183900781	1.002
17	186562	56.660183900781	1.002
17	186764	56.710183900781	1.002
17	186965	56.760183900781	1.002
17	187167	56.810183900781	1.002
17	187352	56.860183900781	1.002
17	187554	56.910183900781	1.002
17	187739	56.960183900781	1.002
17	187941	57.010183900781	1.002
17	188115	57.060183900781	1.002
17	188317	57.110183900781	1.002
17	188518	57.160183900781	1.002
17	188720	57.210183900781	1.002
17	188905	57.260183900781	1.002
17	189107	57.310183900781	1.002
17	189292	57.360183900781	1.002
17	189494	57.410183900781	1.002
17	189679	57.460183900781	1.002
17	189881	57.510183900781	1.002
17	190055	57.560183900781	1.002
17	190257	57.610183900781	1.002
17	190431	57.660183900781	1.002
17	190633	57.710183900781	1.002
17	190818	57.760183900781	1.002
17	191020	57.810183900781	1.002
17	191205	57.860183900781	1.002
17	191407	57.910183900781	1.002
17	191592	57.960183900781	1.002
17	191794	58.010183900781	1.002
17	191963	58.060183900781	1.002
17	192165	58.110183900781	1.002
17	192350	58.160183900781	1.002
17	192552	58.210183900781	1.002
17	192721	58.260183900781	1.002
17	192923	58.310183900781	1.002
17	193108	58.360183900781	1.002
17	193310	58.410183900781	1.002
17	193484	58.460183900781	1.002
17	193686	58.510183900781	1.002
17	193871	58.560183900781	1.002
17	194073	58.610183900781	1.002
17	194258	58.660183900781	1.002
17	194460	58.710183900781	1.002
17	194645	58.760183900781	1.002
17	194847	58.810183900781	1.002
17	195032	58.860183900781	1.002
17	195234	58.910183900781	1.002
17	195397	58.960183900781	1.002
17	195599	59.010183900781	1.002
17	195784	59.060183900781	1.002
17	195986	59.110183900781	1.002
17	196160	59.160183900781	1.002
17	196362	59.210183900781	1.002
17	196531	59.260183900781	1.002
17	196733	59.310183900781	1.002
17	196902	59.360183900781	1.002
17	197104	59.410183900781	1.002
17	197289	59.460183900781	1.002
17	197491	59.510183900781	1.002
17	197676	59.560183900781	1.002
17	197878	59.610183900781	1.002
17	198063	59.660183900781	1.002
17	198265	59.710183900781	1.002
17	198439	59.760183900781	1.002
17	198641	59.810183900781	1.002
17	198826	59.860183900781	1.002
17	199028	59.910183900781	1.002
17	199213	59.960183900781	1.002
17	199415	60.010183900781	1.002
17	199584	60.060183900781	1.002
17	199786	60.110183900781	1.002
17	199971	60.160183900781	1.002
17	200173	60.210183900781	1.002
17	200347	60.260183900781	1.002
17	200549	60.310183900781	1.002
17	200734	60.360183900781	1.002
17	200936	60.410183900781	1.002
17	201121	60.460183900781	1.002
17	201323	60.510183900781	1.002
17	201508	60.560183900781	1.002
17	201710	60.610183900781	1.002
17	201884	60.660183900781	1.002
17	202086	60.710183900781	1.002
17	202271	60.760183900781	1.002
17	202473	60.810183900781	1.002
17	202647	60.860183900781	1.002
17	202849	60.910183900781	1.002
17	203034	60.960183900781	1.002
17	203236	61.010183900781	1.002
17	203437	61.060183900781	1.002
17	203639	61.110183900781	1.002
17	203840	61.160183900781	1.002
17	204042	61.210183900781	1.002
17	204227	61.260183900781	1.002
17	204429	61.310183900781	1.002
17	204603	61.360183900781	1.002
17	204805	61.410183900781	1.002
17	204990	61.460183900781	1.002
17	205192	61.510183900781	1.002
17	205377	61.560183900781	1.002
16	27	0.560183900781	1
16	45	0.610183900781	2
16	62	0.660183900781	3
16	80	0.710183900781	4
16	97	0.760183900781	5
16	115	0.810183900781	6
16	132	0.860183900781	7
16	150	0.910183900781	8
16	167	0.960183900781	9
16	185	1.010183900781	10
16	202	1.060183900781	11
16	220	1.110183900781	12
16	237	1.160183900781	13
16	255	1.210183900781	14
16	272	1.260183900781	15
16	290	1.310183900781	16
16	307	1.360183900781	17
16	325	1.410183900781	18
16	342	1.460183900781	19
16	360	1.510183900781	20
16	377	1.560183900781	21
16	395	1.610183900781	22
16	412	1.660183900781	23
16	430	1.710183900781	24
16	447	1.760183900781	25
16	465	1.810183900781	26
16	482	1.860183900781	27
16	500	1.910183900781	28
16	517	1.960183900781	29
16	535	2.010183900781	30
16	552	2.060183900781	31
16	570	2.110183900781	32
16	587	2.160183900781	33
16	605	2.210183900781	34
16	622	2.260183900781	35
16	640	2.310183900781	36
16	657	2.360183900781	37
16	675	2.410183900781	38
16	692	2.460183900781	39
16	710	2.510183900781	40
16	727	2.560183900781	41
16	745	2.610183900781	42
16	762	2.660183900781	43
16	780	2.710183900781	44
16	797	2.760183900781	45
16	815	2.810183900781	46
16	832	2.860183900781	47
16	850	2.910183900781	48
16	867	2.960183900781	49
16	885	3.010183900781	50
16	902	3.060183900781	51
16	920	3.110183900781	52
16	944	3.160183900781	53
16	969	3.210183900781	54
16	993	3.260183900781	55
16	1018	3.310183900781	56
16	1042	3.360183900781	57
16	1067	3.410183900781	58
16	1091	3.460183900781	59
16	1116	3.510183900781	60
16	1140	3.560183900781	61
16	1165	3.610183900781	62
16	1189	3.660183900781	63
16	1214	3.710183900781	64
16	1238	3.760183900781	65
16	1284	3.810183900781	67
16	1329	3.860183900781	69
16	1375	3.910183900781	71
16	1420	3.960183900781	73
16	1466	4.010183900781	75
16	1511	4.060183900781	77
16	1557	4.110183900781	79
16	1602	4.160183900781	81
16	1648	4.210183900781	83
16	1693	4.260183900781	85
16	1739	4.310183900781	87
16	1784	4.360183900781	89
16	1830	4.410183900781	91
16	1875	4.460183900781	93
16	1921	4.510183900781	95
16	1966	4.560183900781	97
16	2012	4.610183900781	99
16	2057	4.660183900781	101
16	2103	4.710183900781	103
16	2148	4.760183900781	105
16	2194	4.810183900781	107
16	2239	4.860183900781	109
16	2285	4.910183900781	111
16	2330	4.960183900781	113
16	2376	5.010183900781	115
16	2421	5.060183900781	117
16	2467	5.110183900781	119
16	2512	5.160183900781	121
16	2558	5.210183900781	123
16	2603	5.260183900781	125
16	2649	5.310183900781	127
16	2694	5.360183900781	129
16	2740	5.410183900781	131
16	2785	5.460183900781	133
16	2831	5.510183900781	135
16	2876	5.560183900781	137
16	2922	5.610183900781	139
16	2967	5.660183900781	141
16	3013	5.710183900781	143
16	3058	5.760183900781	145
16	3104	5.810183900781	147
16	3149	5.860183900781	149
16	3195	5.910183900781	151
16	3240	5.960183900781	153
16	3286	6.010183900781	155
16	3331	6.060183900781	157
16	3377	6.110183900781	159
16	3435	6.160183900781	161
16	3494	6.210183900781	163
16	3552	6.260183900781	165
16	3611	6.310183900781	167
16	3669	6.360183900781	169
16	3755	6.410183900781	172
16	3840	6.460183900781	175
16	3926	6.510183900781	178
16	4011	6.560183900781	181
16	4097	6.610183900781	184
16	4172	6.660183900781	187
16	4258	6.710183900781	190
16	4333	6.760183900781	193
16	4419	6.810183900781	196
16	4504	6.860183900781	199
16	4590	6.910183900781	202
16	4675	6.960183900781	205
16	4761	7.010183900781	208
16	4846	7.060183900781	211
16	4932	7.110183900781	214
16	5017	7.160183900781	217
16	5103	7.210183900781	220
16	5178	7.260183900781	223
16	5264	7.310183900781	226
16	5349	7.360183900781	229
16	5435	7.410183900781	232
16	5520	7.460183900781	235
16	5606	7.510183900781	238
16	5691	7.560183900781	241
16	5777	7.610183900781	244
16	5862	7.660183900781	247
16	5948	7.710183900781	250
16	6033	7.760183900781	253
16	6119	7.810183900781	256
16	6194	7.860183900781	259
16	6280	7.910183900781	262
16	6365	7.960183900781	265
16	6451	8.010183900781	268
16	6536	8.060183900781	271
16	6622	8.110183900781	274
16	6707	8.160183900781	277
16	6793	8.210183900781	280
16	6878	8.260183900781	283
16	6964	8.310183900781	286
16	7039	8.360183900781	289
16	7125	8.410183900781	292
16	7210	8.460183900781	295
16	7296	8.510183900781	298
16	7381	8.560183900781	301
16	7467	8.610183900781	304
16	7552	8.660183900781	307
16	7638	8.710183900781	310
16	7723	8.760183900781	313
16	7809	8.810183900781	316
16	7894	8.860183900781	319
16	7980	8.910183900781	322
16	8065	8.960183900781	325
16	8151	9.010183900781	328
16	8236	9.060183900781	331
16	8322	9.110183900781	334
16	8413	9.160183900781	337
16	8518	9.210183900781	340
16	8622	9.260183900781	343
16	8727	9.310183900781	346
16	8831	9.360183900781	349
16	8936	9.410183900781	352
16	9040	9.460183900781	355
16	9145	9.510183900781	358
16	9249	9.560183900781	361
16	9354	9.610183900781	364
16	9458	9.660183900781	367
16	9563	9.710183900781	370
16	9667	9.760183900781	373
16	9772	9.810183900781	376
16	9863	9.860183900781	379
16	9968	9.910183900781	382
16	10072	9.960183900781	385
16	10177	10.010183900781	388
16	10281	10.060183900781	391
16	10419	10.110183900781	395
16	10543	10.160183900781	399
16	10681	10.210183900781	403
16	10805	10.260183900781	407
16	10943	10.310183900781	411
16	11080	10.360183900781	415
16	11218	10.410183900781	419
16	11355	10.460183900781	423
16	11493	10.510183900781	427
16	11617	10.560183900781	431
16	11755	10.610183900781	435
16	11879	10.660183900781	439
16	12017	10.710183900781	443
16	12141	10.760183900781	447
16	12279	10.810183900781	451
16	12416	10.860183900781	455
16	12554	10.910183900781	459
16	12691	10.960183900781	463
16	12829	11.010183900781	467
16	12953	11.060183900781	471
16	13091	11.110183900781	475
16	13215	11.160183900781	479
16	13353	11.210183900781	483
16	13477	11.260183900781	487
16	13615	11.310183900781	491
16	13752	11.360183900781	495
16	13890	11.410183900781	499
16	14027	11.460183900781	503
16	14165	11.510183900781	507
16	14289	11.560183900781	511
16	14427	11.610183900781	515
16	14551	11.660183900781	519
16	14689	11.710183900781	523
16	14813	11.760183900781	527
16	14951	11.810183900781	531
16	15075	11.860183900781	535
16	15213	11.910183900781	539
16	15328	11.960183900781	543
16	15466	12.010183900781	547
16	15590	12.060183900781	551
16	15728	12.110183900781	555
16	15875	12.160183900781	559
16	16038	12.210183900781	563
16	16185	12.260183900781	567
16	16348	12.310183900781	571
16	16495	12.360183900781	575
16	16658	12.410183900781	579
16	16805	12.460183900781	583
16	16968	12.510183900781	587
16	17130	12.560183900781	591
16	17332	12.610183900781	596
16	17517	12.660183900781	601
16	17719	12.710183900781	606
16	17904	12.760183900781	611
16	18106	12.810183900781	616
16	18291	12.860183900781	621
16	18493	12.910183900781	626
16	18679	12.960183900781	631
16	18881	13.010183900781	636
16	19066	13.060183900781	641
16	19268	13.110183900781	646
16	19453	13.160183900781	651
16	19655	13.210183900781	656
16	19829	13.260183900781	661
16	20031	13.310183900781	666
16	20216	13.360183900781	671
16	20418	13.410183900781	676
16	20603	13.460183900781	681
16	20805	13.510183900781	686
16	20979	13.560183900781	691
16	21181	13.610183900781	696
16	21366	13.660183900781	701
16	21568	13.710183900781	706
16	21753	13.760183900781	711
16	21955	13.810183900781	716
16	22156	13.860183900781	721
16	22358	13.910183900781	726
16	22532	13.960183900781	731
16	22734	14.010183900781	736
16	22919	14.060183900781	741
16	23121	14.110183900781	746
16	23322	14.160183900781	751
16	23524	14.210183900781	756
16	23693	14.260183900781	761
16	23895	14.310183900781	766
16	24064	14.360183900781	771
16	24266	14.410183900781	776
16	24451	14.460183900781	781
16	24653	14.510183900781	786
16	24838	14.560183900781	791
16	25040	14.610183900781	796
16	25225	14.660183900781	801
16	25427	14.710183900781	806
16	25596	14.760183900781	811
16	25798	14.810183900781	816
16	25983	14.860183900781	821
16	26185	14.910183900781	826
16	26370	14.960183900781	831
16	26572	15.010183900781	836
16	26757	15.060183900781	841
16	26959	15.110183900781	846
16	27144	15.160183900781	851
16	27346	15.210183900781	856
16	27531	15.260183900781	861
16	27733	15.310183900781	866
16	27902	15.360183900781	871
16	28104	15.410183900781	876
16	28267	15.460183900781	881
16	28469	15.510183900781	886
16	28654	15.560183900781	891
16	28856	15.610183900781	896
16	29025	15.660183900781	901
16	29227	15.710183900781	906
16	29401	15.760183900781	911
16	29603	15.810183900781	916
16	29788	15.860183900781	921
16	29990	15.910183900781	926
16	30175	15.960183900781	931
16	30377	16.010183900781	936
16	30551	16.060183900781	941
16	30753	16.110183900781	946
16	30938	16.160183900781	951
16	31140	16.210183900781	956
16	31314	16.260183900781	961
16	31516	16.310183900781	966
16	31701	16.360183900781	971
16	31903	16.410183900781	976
16	32077	16.460183900781	981
16	32279	16.510183900781	986
16	32464	16.560183900781	991
16	32666	16.610183900781	996
16	32851	16.660183900781	1001
16	33053	16.710183900781	1006
16	33238	16.760183900781	1011
16	33440	16.810183900781	1016
16	33625	16.860183900781	1021
16	33827	16.910183900781	1026
16	34001	16.960183900781	1031
16	34203	17.010183900781	1036
16	34377	17.060183900781	1041
16	34579	17.110183900781	1046
16	34780	17.160183900781	1051
16	34982	17.210183900781	1056
16	35167	17.260183900781	1061
16	35369	17.310183900781	1066
16	35554	17.360183900781	1071
16	35756	17.410183900781	1076
16	35925	17.460183900781	1081
16	36127	17.510183900781	1086
16	36312	17.560183900781	1091
16	36514	17.610183900781	1096
16	36699	17.660183900781	1101
16	36901	17.710183900781	1106
16	37075	17.760183900781	1111
16	37277	17.810183900781	1116
16	37462	17.860183900781	1121
16	37664	17.910183900781	1126
16	37838	17.960183900781	1131
16	38040	18.010183900781	1136
16	38225	18.060183900781	1141
16	38427	18.110183900781	1146
16	38601	18.160183900781	1151
16	38803	18.210183900781	1156
16	38988	18.260183900781	1161
16	39190	18.310183900781	1166
16	39375	18.360183900781	1171
16	39577	18.410183900781	1176
16	39746	18.460183900781	1181
16	39948	18.510183900781	1186
16	40117	18.560183900781	1191
16	40319	18.610183900781	1196
16	40504	18.660183900781	1201
16	40706	18.710183900781	1206
16	40891	18.760183900781	1211
16	41093	18.810183900781	1216
16	41267	18.860183900781	1221
16	41469	18.910183900781	1226
16	41638	18.960183900781	1231
16	41840	19.010183900781	1236
16	42025	19.060183900781	1241
16	42227	19.110183900781	1246
16	42396	19.160183900781	1251
16	42598	19.210183900781	1256
16	42783	19.260183900781	1261
16	42985	19.310183900781	1266
16	43170	19.360183900781	1271
16	43372	19.410183900781	1276
16	43557	19.460183900781	1281
16	43759	19.510183900781	1286
16	43928	19.560183900781	1291
16	44130	19.610183900781	1296
16	44304	19.660183900781	1301
16	44506	19.710183900781	1306
16	44691	19.760183900781	1311
16	44893	19.810183900781	1316
16	45062	19.860183900781	1321
16	45264	19.910183900781	1326
16	45449	19.960183900781	1331
16	45651	20.010183900781	1336
16	45820	20.060183900781	1341
16	46022	20.110183900781	1346
16	46196	20.160183900781	1351
16	46398	20.210183900781	1356
16	46572	20.260183900781	1361
16	46774	20.310183900781	1366
16	46959	20.360183900781	1371
16	47161	20.410183900781	1376
16	47346	20.460183900781	1381
16	47548	20.510183900781	1386
16	47717	20.560183900781	1391
16	47919	20.610183900781	1396
16	48104	20.660183900781	1401
16	48306	20.710183900781	1406
16	48491	20.760183900781	1411
16	48693	20.810183900781	1416
16	48878	20.860183900781	1421
16	49080	20.910183900781	1426
16	49281	20.960183900781	1431
16	49483	21.010183900781	1436
16	49668	21.060183900781	1441
16	49870	21.110183900781	1446
16	50055	21.160183900781	1451
16	50257	21.210183900781	1456
16	50431	21.260183900781	1461
16	50633	21.310183900781	1466
16	50818	21.360183900781	1471
16	51020	21.410183900781	1476
16	51205	21.460183900781	1481
16	51407	21.510183900781	1486
16	51581	21.560183900781	1491
16	51783	21.610183900781	1496
16	51968	21.660183900781	1501
16	52170	21.710183900781	1506
16	52355	21.760183900781	1511
16	52557	21.810183900781	1516
16	52742	21.860183900781	1521
16	52944	21.910183900781	1526
16	53145	21.960183900781	1531
16	53347	22.010183900781	1536
16	53516	22.060183900781	1541
16	53718	22.110183900781	1546
16	53903	22.160183900781	1551
16	54105	22.210183900781	1556
16	54290	22.260183900781	1561
16	54492	22.310183900781	1566
16	54677	22.360183900781	1571
16	54879	22.410183900781	1576
16	55080	22.460183900781	1581
16	55282	22.510183900781	1586
16	55451	22.560183900781	1591
16	55653	22.610183900781	1596
16	55838	22.660183900781	1601
16	56040	22.710183900781	1606
16	56225	22.760183900781	1611
16	56427	22.810183900781	1616
16	56612	22.860183900781	1621
16	56814	22.910183900781	1626
16	56999	22.960183900781	1631
16	57201	23.010183900781	1636
16	57375	23.060183900781	1641
16	57577	23.110183900781	1646
16	57762	23.160183900781	1651
16	57964	23.210183900781	1656
16	58133	23.260183900781	1661
16	58335	23.310183900781	1666
16	58520	23.360183900781	1671
16	58722	23.410183900781	1676
16	58907	23.460183900781	1681
16	59109	23.510183900781	1686
16	59294	23.560183900781	1691
16	59496	23.610183900781	1696
16	59670	23.660183900781	1701
16	59872	23.710183900781	1706
16	60046	23.760183900781	1711
16	60248	23.810183900781	1716
16	60433	23.860183900781	1721
16	60635	23.910183900781	1726
16	60836	23.960183900781	1731
16	61038	24.010183900781	1736
16	61223	24.060183900781	1741
16	61425	24.110183900781	1746
16	61626	24.160183900781	1751
16	61828	24.210183900781	1756
16	62002	24.260183900781	1761
16	62204	24.310183900781	1766
16	62389	24.360183900781	1771
16	62591	24.410183900781	1776
16	62792	24.460183900781	1781
16	62994	24.510183900781	1786
16	63168	24.560183900781	1791
16	63370	24.610183900781	1796
16	63571	24.660183900781	1801
16	63773	24.710183900781	1806
16	63958	24.760183900781	1811
16	64160	24.810183900781	1816
16	64334	24.860183900781	1821
16	64536	24.910183900781	1826
16	64721	24.960183900781	1831
16	64923	25.010183900781	1836
16	65108	25.060183900781	1841
16	65310	25.110183900781	1846
16	65479	25.160183900781	1851
16	65681	25.210183900781	1856
16	65866	25.260183900781	1861
16	66068	25.310183900781	1866
16	66253	25.360183900781	1871
16	66455	25.410183900781	1876
16	66656	25.460183900781	1881
16	66858	25.510183900781	1886
16	67043	25.560183900781	1891
16	67245	25.610183900781	1896
16	67419	25.660183900781	1901
16	67621	25.710183900781	1906
16	67790	25.760183900781	1911
16	67992	25.810183900781	1916
16	68177	25.860183900781	1921
16	68379	25.910183900781	1926
16	68564	25.960183900781	1931
16	68766	26.010183900781	1936
16	68940	26.060183900781	1941
16	69142	26.110183900781	1946
16	69343	26.160183900781	1951
16	69545	26.210183900781	1956
16	69730	26.260183900781	1961
16	69932	26.310183900781	1966
16	70106	26.360183900781	1971
16	70308	26.410183900781	1976
16	70493	26.460183900781	1981
16	70695	26.510183900781	1986
16	70869	26.560183900781	1991
16	71071	26.610183900781	1996
16	71234	26.660183900781	2001
16	71436	26.710183900781	2006
16	71605	26.760183900781	2011
16	71807	26.810183900781	2016
16	71981	26.860183900781	2021
16	72183	26.910183900781	2026
16	72368	26.960183900781	2031
16	72570	27.010183900781	2036
16	72744	27.060183900781	2041
16	72946	27.110183900781	2046
16	73131	27.160183900781	2051
16	73333	27.210183900781	2056
16	73507	27.260183900781	2061
16	73709	27.310183900781	2066
16	73910	27.360183900781	2071
16	74112	27.410183900781	2076
16	74297	27.460183900781	2081
16	74499	27.510183900781	2086
16	74700	27.560183900781	2091
16	74902	27.610183900781	2096
16	75076	27.660183900781	2101
16	75278	27.710183900781	2106
16	75447	27.760183900781	2111
16	75649	27.810183900781	2116
16	75823	27.860183900781	2121
16	76025	27.910183900781	2126
16	76210	27.960183900781	2131
16	76412	28.010183900781	2136
16	76581	28.060183900781	2141
16	76783	28.110183900781	2146
16	76968	28.160183900781	2151
16	77170	28.210183900781	2156
16	77339	28.260183900781	2161
16	77541	28.310183900781	2166
16	77726	28.360183900781	2171
16	77928	28.410183900781	2176
16	78113	28.460183900781	2181
16	78315	28.510183900781	2186
16	78500	28.560183900781	2191
16	78702	28.610183900781	2196
16	78876	28.660183900781	2201
16	79078	28.710183900781	2206
16	79263	28.760183900781	2211
16	79465	28.810183900781	2216
16	79639	28.860183900781	2221
16	79841	28.910183900781	2226
16	80010	28.960183900781	2231
16	80212	29.010183900781	2236
16	80397	29.060183900781	2241
16	80599	29.110183900781	2246
16	80784	29.160183900781	2251
16	80986	29.210183900781	2256
16	81187	29.260183900781	2261
16	81389	29.310183900781	2266
16	81558	29.360183900781	2271
16	81760	29.410183900781	2276
16	81961	29.460183900781	2281
16	82163	29.510183900781	2286
16	82332	29.560183900781	2291
16	82534	29.610183900781	2296
16	82703	29.660183900781	2301
16	82905	29.710183900781	2306
16	83106	29.760183900781	2311
16	83308	29.810183900781	2316
16	83493	29.860183900781	2321
16	83695	29.910183900781	2326
16	83896	29.960183900781	2331
16	84098	30.010183900781	2336
16	84272	30.060183900781	2341
16	84474	30.110183900781	2346
16	84659	30.160183900781	2351
16	84861	30.210183900781	2356
16	85046	30.260183900781	2361
16	85248	30.310183900781	2366
16	85433	30.360183900781	2371
16	85635	30.410183900781	2376
16	85798	30.460183900781	2381
16	86000	30.510183900781	2386
16	86185	30.560183900781	2391
16	86387	30.610183900781	2396
16	86556	30.660183900781	2401
16	86758	30.710183900781	2406
16	86932	30.760183900781	2411
16	87134	30.810183900781	2416
16	87335	30.860183900781	2421
16	87537	30.910183900781	2426
16	87722	30.960183900781	2431
16	87924	31.010183900781	2436
16	88109	31.060183900781	2441
16	88311	31.110183900781	2446
16	88512	31.160183900781	2451
16	88714	31.210183900781	2456
16	88899	31.260183900781	2461
16	89101	31.310183900781	2466
16	89286	31.360183900781	2471
16	89488	31.410183900781	2476
16	89657	31.460183900781	2481
16	89859	31.510183900781	2486
16	90044	31.560183900781	2491
16	90246	31.610183900781	2496
16	90447	31.660183900781	2501
16	90649	31.710183900781	2506
16	90834	31.760183900781	2511
16	91036	31.810183900781	2516
16	91221	31.860183900781	2521
16	91423	31.910183900781	2526
16	91592	31.960183900781	2531
16	91794	32.010183900781	2536
16	91979	32.060183900781	2541
16	92181	32.110183900781	2546
16	92355	32.160183900781	2551
16	92557	32.210183900781	2556
16	92742	32.260183900781	2561
16	92944	32.310183900781	2566
16	93129	32.360183900781	2571
16	93331	32.410183900781	2576
16	93516	32.460183900781	2581
16	93718	32.510183900781	2586
16	93903	32.560183900781	2591
16	94105	32.610183900781	2596
16	94290	32.660183900781	2601
16	94492	32.710183900781	2606
16	94677	32.760183900781	2611
16	94879	32.810183900781	2616
16	95053	32.860183900781	2621
16	95255	32.910183900781	2626
16	95429	32.960183900781	2631
16	95631	33.010183900781	2636
16	95816	33.060183900781	2641
16	96018	33.110183900781	2646
16	96203	33.160183900781	2651
16	96405	33.210183900781	2656
16	96590	33.260183900781	2661
16	96792	33.310183900781	2666
16	96961	33.360183900781	2671
16	97163	33.410183900781	2676
16	97348	33.460183900781	2681
16	97550	33.510183900781	2686
16	97735	33.560183900781	2691
16	97937	33.610183900781	2696
16	98122	33.660183900781	2701
16	98324	33.710183900781	2706
16	98498	33.760183900781	2711
16	98700	33.810183900781	2716
16	98885	33.860183900781	2721
16	99087	33.910183900781	2726
16	99272	33.960183900781	2731
16	99474	34.010183900781	2736
16	99659	34.060183900781	2741
16	99861	34.110183900781	2746
16	100035	34.160183900781	2751
16	100237	34.210183900781	2756
16	100411	34.260183900781	2761
16	100613	34.310183900781	2766
16	100782	34.360183900781	2771
16	100984	34.410183900781	2776
16	101185	34.460183900781	2781
16	101387	34.510183900781	2786
16	101572	34.560183900781	2791
16	101774	34.610183900781	2796
16	101975	34.660183900781	2801
16	102177	34.710183900781	2806
16	102362	34.760183900781	2811
16	102564	34.810183900781	2816
16	102749	34.860183900781	2821
16	102951	34.910183900781	2826
16	103136	34.960183900781	2831
16	103338	35.010183900781	2836
16	103507	35.060183900781	2841
16	103709	35.110183900781	2846
16	103883	35.160183900781	2851
16	104085	35.210183900781	2856
16	104270	35.260183900781	2861
16	104472	35.310183900781	2866
16	104657	35.360183900781	2871
16	104859	35.410183900781	2876
16	105044	35.460183900781	2881
16	105246	35.510183900781	2886
16	105415	35.560183900781	2891
16	105617	35.610183900781	2896
16	105786	35.660183900781	2901
16	105988	35.710183900781	2906
16	106189	35.760183900781	2911
16	106391	35.810183900781	2916
16	106565	35.860183900781	2921
16	106767	35.910183900781	2926
16	106941	35.960183900781	2931
16	107143	36.010183900781	2936
16	107328	36.060183900781	2941
16	107530	36.110183900781	2946
16	107715	36.160183900781	2951
16	107917	36.210183900781	2956
16	108118	36.260183900781	2961
16	108320	36.310183900781	2966
16	108521	36.360183900781	2971
16	108723	36.410183900781	2976
16	108908	36.460183900781	2981
16	109110	36.510183900781	2986
16	109295	36.560183900781	2991
16	109497	36.610183900781	2996
16	109698	36.660183900781	3001
16	109900	36.710183900781	3006
16	110085	36.760183900781	3011
16	110287	36.810183900781	3016
16	110488	36.860183900781	3021
16	110690	36.910183900781	3026
16	110859	36.960183900781	3031
16	111061	37.010183900781	3036
16	111246	37.060183900781	3041
16	111448	37.110183900781	3046
16	111633	37.160183900781	3051
16	111835	37.210183900781	3056
16	112009	37.260183900781	3061
16	112211	37.310183900781	3066
16	112385	37.360183900781	3071
16	112587	37.410183900781	3076
16	112788	37.460183900781	3081
16	112990	37.510183900781	3086
16	113159	37.560183900781	3091
16	113361	37.610183900781	3096
16	113530	37.660183900781	3101
16	113732	37.710183900781	3106
16	113906	37.760183900781	3111
16	114108	37.810183900781	3116
16	114293	37.860183900781	3121
16	114495	37.910183900781	3126
16	114669	37.960183900781	3131
16	114871	38.010183900781	3136
16	115056	38.060183900781	3141
16	115258	38.110183900781	3146
16	115443	38.160183900781	3151
16	115645	38.210183900781	3156
16	115830	38.260183900781	3161
16	116032	38.310183900781	3166
16	116201	38.360183900781	3171
16	116403	38.410183900781	3176
16	116588	38.460183900781	3181
16	116790	38.510183900781	3186
16	116975	38.560183900781	3191
16	117177	38.610183900781	3196
16	117351	38.660183900781	3201
16	117553	38.710183900781	3206
16	117738	38.760183900781	3211
16	117940	38.810183900781	3216
16	118125	38.860183900781	3221
16	118327	38.910183900781	3226
16	118501	38.960183900781	3231
16	118703	39.010183900781	3236
16	118888	39.060183900781	3241
16	119090	39.110183900781	3246
16	119259	39.160183900781	3251
16	119461	39.210183900781	3256
16	119646	39.260183900781	3261
16	119848	39.310183900781	3266
16	120033	39.360183900781	3271
16	120235	39.410183900781	3276
16	120420	39.460183900781	3281
16	120622	39.510183900781	3286
16	120807	39.560183900781	3291
16	121009	39.610183900781	3296
16	121183	39.660183900781	3301
16	121385	39.710183900781	3306
16	121570	39.760183900781	3311
16	121772	39.810183900781	3316
16	121957	39.860183900781	3321
16	122159	39.910183900781	3326
16	122344	39.960183900781	3331
16	122546	40.010183900781	3336
16	122731	40.060183900781	3341
16	122933	40.110183900781	3346
16	123107	40.160183900781	3351
16	123309	40.210183900781	3356
16	123494	40.260183900781	3361
16	123696	40.310183900781	3366
16	123881	40.360183900781	3371
16	124083	40.410183900781	3376
16	124284	40.460183900781	3381
16	124486	40.510183900781	3386
16	124671	40.560183900781	3391
16	124873	40.610183900781	3396
16	125058	40.660183900781	3401
16	125260	40.710183900781	3406
16	125434	40.760183900781	3411
16	125636	40.810183900781	3416
16	125805	40.860183900781	3421
16	126007	40.910183900781	3426
16	126192	40.960183900781	3431
16	126394	41.010183900781	3436
16	126579	41.060183900781	3441
16	126781	41.110183900781	3446
16	126966	41.160183900781	3451
16	127168	41.210183900781	3456
16	127353	41.260183900781	3461
16	127555	41.310183900781	3466
16	127740	41.360183900781	3471
16	127942	41.410183900781	3476
16	128127	41.460183900781	3481
16	128329	41.510183900781	3486
16	128514	41.560183900781	3491
16	128716	41.610183900781	3496
16	128885	41.660183900781	3501
16	129087	41.710183900781	3506
16	129272	41.760183900781	3511
16	129474	41.810183900781	3516
16	129659	41.860183900781	3521
16	129861	41.910183900781	3526
16	130030	41.960183900781	3531
16	130232	42.010183900781	3536
16	130417	42.060183900781	3541
16	130619	42.110183900781	3546
16	130804	42.160183900781	3551
16	131006	42.210183900781	3556
16	131175	42.260183900781	3561
16	131377	42.310183900781	3566
16	131562	42.360183900781	3571
16	131764	42.410183900781	3576
16	131949	42.460183900781	3581
16	132151	42.510183900781	3586
16	132336	42.560183900781	3591
16	132538	42.610183900781	3596
16	132712	42.660183900781	3601
16	132914	42.710183900781	3606
16	133099	42.760183900781	3611
16	133301	42.810183900781	3616
16	133502	42.860183900781	3621
16	133704	42.910183900781	3626
16	133878	42.960183900781	3631
16	134080	43.010183900781	3636
16	134254	43.060183900781	3641
16	134456	43.110183900781	3646
16	134657	43.160183900781	3651
16	134859	43.210183900781	3656
16	135044	43.260183900781	3661
16	135246	43.310183900781	3666
16	135431	43.360183900781	3671
16	135633	43.410183900781	3676
16	135818	43.460183900781	3681
16	136020	43.510183900781	3686
16	136205	43.560183900781	3691
16	136407	43.610183900781	3696
16	136581	43.660183900781	3701
16	136783	43.710183900781	3706
16	136968	43.760183900781	3711
16	137170	43.810183900781	3716
16	137371	43.860183900781	3721
16	137573	43.910183900781	3726
16	137758	43.960183900781	3731
16	137960	44.010183900781	3736
16	138129	44.060183900781	3741
16	138331	44.110183900781	3746
16	138505	44.160183900781	3751
16	138707	44.210183900781	3756
16	138876	44.260183900781	3761
16	139078	44.310183900781	3766
16	139263	44.360183900781	3771
16	139465	44.410183900781	3776
16	139650	44.460183900781	3781
16	139852	44.510183900781	3786
16	140053	44.560183900781	3791
16	140255	44.610183900781	3796
16	140440	44.660183900781	3801
16	140642	44.710183900781	3806
16	140811	44.760183900781	3811
16	141013	44.810183900781	3816
16	141214	44.860183900781	3821
16	141416	44.910183900781	3826
16	141617	44.960183900781	3831
16	141819	45.010183900781	3836
16	142020	45.060183900781	3841
16	142222	45.110183900781	3846
16	142407	45.160183900781	3851
16	142609	45.210183900781	3856
16	142783	45.260183900781	3861
16	142985	45.310183900781	3866
16	143170	45.360183900781	3871
16	143372	45.410183900781	3876
16	143557	45.460183900781	3881
16	143759	45.510183900781	3886
16	143928	45.560183900781	3891
16	144130	45.610183900781	3896
16	144315	45.660183900781	3901
16	144517	45.710183900781	3906
16	144686	45.760183900781	3911
16	144888	45.810183900781	3916
16	145062	45.860183900781	3921
16	145264	45.910183900781	3926
16	145449	45.960183900781	3931
16	145651	46.010183900781	3936
16	145836	46.060183900781	3941
16	146038	46.110183900781	3946
16	146223	46.160183900781	3951
16	146425	46.210183900781	3956
16	146599	46.260183900781	3961
16	146801	46.310183900781	3966
16	146986	46.360183900781	3971
16	147188	46.410183900781	3976
16	147373	46.460183900781	3981
16	147575	46.510183900781	3986
16	147776	46.560183900781	3991
16	147978	46.610183900781	3996
16	148163	46.660183900781	4001
16	148365	46.710183900781	4006
16	148566	46.760183900781	4011
16	148768	46.810183900781	4016
16	148953	46.860183900781	4021
16	149155	46.910183900781	4026
16	149340	46.960183900781	4031
16	149542	47.010183900781	4036
16	149727	47.060183900781	4041
16	149929	47.110183900781	4046
16	150098	47.160183900781	4051
16	150300	47.210183900781	4056
16	150469	47.260183900781	4061
16	150671	47.310183900781	4066
16	150856	47.360183900781	4071
16	151058	47.410183900781	4076
16	151232	47.460183900781	4081
16	151434	47.510183900781	4086
16	151619	47.560183900781	4091
16	151821	47.610183900781	4096
16	152006	47.660183900781	4101
16	152208	47.710183900781	4106
16	152393	47.760183900781	4111
16	152595	47.810183900781	4116
16	152780	47.860183900781	4121
16	152982	47.910183900781	4126
16	153167	47.960183900781	4131
16	153369	48.010183900781	4136
16	153554	48.060183900781	4141
16	153756	48.110183900781	4146
16	153925	48.160183900781	4151
16	154127	48.210183900781	4156
16	154312	48.260183900781	4161
16	154514	48.310183900781	4166
16	154699	48.360183900781	4171
16	154901	48.410183900781	4176
16	155086	48.460183900781	4181
16	155288	48.510183900781	4186
16	155457	48.560183900781	4191
16	155659	48.610183900781	4196
16	155860	48.660183900781	4201
16	156062	48.710183900781	4206
16	156247	48.760183900781	4211
16	156449	48.810183900781	4216
16	156618	48.860183900781	4221
16	156820	48.910183900781	4226
16	157005	48.960183900781	4231
16	157207	49.010183900781	4236
16	157376	49.060183900781	4241
16	157578	49.110183900781	4246
16	157747	49.160183900781	4251
16	157949	49.210183900781	4256
16	158134	49.260183900781	4261
16	158336	49.310183900781	4266
16	158521	49.360183900781	4271
16	158723	49.410183900781	4276
16	158924	49.460183900781	4281
16	159126	49.510183900781	4286
16	159300	49.560183900781	4291
16	159502	49.610183900781	4296
16	159671	49.660183900781	4301
16	159873	49.710183900781	4306
16	160042	49.760183900781	4311
16	160244	49.810183900781	4316
16	160413	49.860183900781	4321
16	160615	49.910183900781	4326
16	160800	49.960183900781	4331
16	161002	50.010183900781	4336
16	161165	50.060183900781	4341
16	161367	50.110183900781	4346
16	161536	50.160183900781	4351
16	161738	50.210183900781	4356
16	161923	50.260183900781	4361
16	162125	50.310183900781	4366
16	162294	50.360183900781	4371
16	162496	50.410183900781	4376
16	162681	50.460183900781	4381
16	162883	50.510183900781	4386
16	163084	50.560183900781	4391
16	163286	50.610183900781	4396
16	163460	50.660183900781	4401
16	163662	50.710183900781	4406
16	163847	50.760183900781	4411
16	164049	50.810183900781	4416
16	164234	50.860183900781	4421
16	164436	50.910183900781	4426
16	164637	50.960183900781	4431
16	164839	51.010183900781	4436
16	165024	51.060183900781	4441
16	165226	51.110183900781	4446
16	165427	51.160183900781	4451
16	165629	51.210183900781	4456
16	165830	51.260183900781	4461
16	166032	51.310183900781	4466
16	166217	51.360183900781	4471
16	166419	51.410183900781	4476
16	166620	51.460183900781	4481
16	166822	51.510183900781	4486
16	167007	51.560183900781	4491
16	167209	51.610183900781	4496
16	167394	51.660183900781	4501
16	167596	51.710183900781	4506
16	167781	51.760183900781	4511
16	167983	51.810183900781	4516
16	168168	51.860183900781	4521
16	168370	51.910183900781	4526
16	168555	51.960183900781	4531
16	168757	52.010183900781	4536
16	168920	52.060183900781	4541
16	169122	52.110183900781	4546
16	169296	52.160183900781	4551
16	169498	52.210183900781	4556
16	169672	52.260183900781	4561
16	169874	52.310183900781	4566
16	170075	52.360183900781	4571
16	170277	52.410183900781	4576
16	170462	52.460183900781	4581
16	170664	52.510183900781	4586
16	170865	52.560183900781	4591
16	171067	52.610183900781	4596
16	171252	52.660183900781	4601
16	171454	52.710183900781	4606
16	171639	52.760183900781	4611
16	171841	52.810183900781	4616
16	172015	52.860183900781	4621
16	172217	52.910183900781	4626
16	172391	52.960183900781	4631
16	172593	53.010183900781	4636
16	172778	53.060183900781	4641
16	172980	53.110183900781	4646
16	173149	53.160183900781	4651
16	173351	53.210183900781	4656
16	173525	53.260183900781	4661
16	173727	53.310183900781	4666
16	173901	53.360183900781	4671
16	174103	53.410183900781	4676
16	174288	53.460183900781	4681
16	174490	53.510183900781	4686
16	174675	53.560183900781	4691
16	174877	53.610183900781	4696
16	175062	53.660183900781	4701
16	175264	53.710183900781	4706
16	175449	53.760183900781	4711
16	175651	53.810183900781	4716
16	175836	53.860183900781	4721
16	176038	53.910183900781	4726
16	176223	53.960183900781	4731
16	176425	54.010183900781	4736
16	176610	54.060183900781	4741
16	176812	54.110183900781	4746
16	176986	54.160183900781	4751
16	177188	54.210183900781	4756
16	177373	54.260183900781	4761
16	177575	54.310183900781	4766
16	177744	54.360183900781	4771
16	177946	54.410183900781	4776
16	178131	54.460183900781	4781
16	178333	54.510183900781	4786
16	178518	54.560183900781	4791
16	178720	54.610183900781	4796
16	178905	54.660183900781	4801
16	179107	54.710183900781	4806
16	179308	54.760183900781	4811
16	179510	54.810183900781	4816
16	179673	54.860183900781	4821
16	179875	54.910183900781	4826
16	180044	54.960183900781	4831
16	180246	55.010183900781	4836
16	180409	55.060183900781	4841
16	180611	55.110183900781	4846
16	180785	55.160183900781	4851
16	180987	55.210183900781	4856
16	181156	55.260183900781	4861
16	181358	55.310183900781	4866
16	181521	55.360183900781	4871
16	181723	55.410183900781	4876
16	181924	55.460183900781	4881
16	182126	55.510183900781	4886
16	182300	55.560183900781	4891
16	182502	55.610183900781	4896
16	182687	55.660183900781	4901
16	182889	55.710183900781	4906
16	183090	55.760183900781	4911
16	183292	55.810183900781	4916
16	183477	55.860183900781	4921
16	183679	55.910183900781	4926
16	183864	55.960183900781	4931
16	184066	56.010183900781	4936
16	184235	56.060183900781	4941
16	184437	56.110183900781	4946
16	184638	56.160183900781	4951
16	184840	56.210183900781	4956
16	185025	56.260183900781	4961
16	185227	56.310183900781	4966
16	185401	56.360183900781	4971
16	185603	56.410183900781	4976
16	185788	56.460183900781	4981
16	185990	56.510183900781	4986
16	186159	56.560183900781	4991
16	186361	56.610183900781	4996
16	186562	56.660183900781	5001
16	186764	56.710183900781	5006
16	186965	56.760183900781	5011
16	187167	56.810183900781	5016
16	187352	56.860183900781	5021
16	187554	56.910183900781	5026
16	187739	56.960183900781	5031
16	187941	57.010183900781	5036
16	188115	57.060183900781	5041
16	188317	57.110183900781	5046
16	188518	57.160183900781	5051
16	188720	57.210183900781	5056
16	188905	57.260183900781	5061
16	189107	57.310183900781	5066
16	189292	57.360183900781	5071
16	189494	57.410183900781	5076
16	189679	57.460183900781	5081
16	189881	57.510183900781	5086
16	190055	57.560183900781	5091
16	190257	57.610183900781	5096
16	190431	57.660183900781	5101
16	190633	57.710183900781	5106
16	190818	57.760183900781	5111
16	191020	57.810183900781	5116
16	191205	57.860183900781	5121
16	191407	57.910183900781	5126
16	191592	57.960183900781	5131
16	191794	58.010183900781	5136
16	191963	58.060183900781	5141
16	192165	58.110183900781	5146
16	192350	58.160183900781	5151
16	192552	58.210183900781	5156
16	192721	58.260183900781	5161
16	192923	58.310183900781	5166
16	193108	58.360183900781	5171
16	193310	58.410183900781	5176
16	193484	58.460183900781	5181
16	193686	58.510183900781	5186
16	193871	58.560183900781	5191
16	194073	58.610183900781	5196
16	194258	58.660183900781	5201
16	194460	58.710183900781	5206
16	194645	58.760183900781	5211
16	194847	58.810183900781	5216
16	195032	58.860183900781	5221
16	195234	58.910183900781	5226
16	195397	58.960183900781	5231
16	195599	59.010183900781	5236
16	195784	59.060183900781	5241
16	195986	59.110183900781	5246
16	196160	59.160183900781	5251
16	196362	59.210183900781	5256
16	196531	59.260183900781	5261
16	196733	59.310183900781	5266
16	196902	59.360183900781	5271
16	197104	59.410183900781	5276
16	197289	59.460183900781	5281
16	197491	59.510183900781	5286
16	197676	59.560183900781	5291
16	197878	59.610183900781	5296
16	198063	59.660183900781	5301
16	198265	59.710183900781	5306
16	198439	59.760183900781	5311
16	198641	59.810183900781	5316
16	198826	59.860183900781	5321
16	199028	59.910183900781	5326
16	199213	59.960183900781	5331
16	199415	60.010183900781	5336
16	199584	60.060183900781	5341
16	199786	60.110183900781	5346
16	199971	60.160183900781	5351
16	200173	60.210183900781	5356
16	200347	60.260183900781	5361
16	200549	60.310183900781	5366
16	200734	60.360183900781	5371
16	200936	60.410183900781	5376
16	201121	60.460183900781	5381
16	201323	60.510183900781	5386
16	201508	60.560183900781	5391
16	201710	60.610183900781	5396
[...]
14	141012	44.800279462259	0.002
14	141028	44.850279462259	0.001
14	141415	44.900279462259	0.002
14	141431	44.950279462259	0.001
14	141818	45.000279462259	0.002
14	141834	45.050279462259	0.001
14	142221	45.100279462259	0.002
14	142237	45.150279462259	0.001
14	142608	45.200279462259	0.002
14	142624	45.250279462259	0.001
14	142984	45.300279462259	0.002
14	143000	45.350279462259	0.001
14	143371	45.400279462259	0.002
14	143387	45.450279462259	0.001
14	143758	45.500279462259	0.002
14	143774	45.550279462259	0.001
14	144129	45.600279462259	0.002
14	144145	45.650279462259	0.001
14	144516	45.700279462259	0.002
14	144532	45.750279462259	0.001
14	144887	45.800279462259	0.002
14	144903	45.850279462259	0.001
14	145263	45.900279462259	0.002
14	145279	45.950279462259	0.001
14	145650	46.000279462259	0.002
14	145666	46.050279462259	0.001
14	146037	46.100279462259	0.002
14	146053	46.150279462259	0.001
14	146424	46.200279462259	0.002
14	146440	46.250279462259	0.001
14	146800	46.300279462259	0.002
14	146816	46.350279462259	0.001
14	147187	46.400279462259	0.002
14	147203	46.450279462259	0.001
14	147574	46.500279462259	0.002
14	147590	46.550279462259	0.001
14	147977	46.600279462259	0.002
14	147993	46.650279462259	0.001
14	148364	46.700279462259	0.002
14	148380	46.750279462259	0.001
14	148767	46.800279462259	0.002
14	148783	46.850279462259	0.001
14	149154	46.900279462259	0.002
14	149170	46.950279462259	0.001
14	149541	47.000279462259	0.002
14	149557	47.050279462259	0.001
14	149928	47.100279462259	0.002
14	149944	47.150279462259	0.001
14	150299	47.200279462259	0.002
14	150315	47.250279462259	0.001
14	150670	47.300279462259	0.002
14	150686	47.350279462259	0.001
14	151057	47.400279462259	0.002
14	151073	47.450279462259	0.001
14	151433	47.500279462259	0.002
14	151449	47.550279462259	0.001
14	151820	47.600279462259	0.002
14	151836	47.650279462259	0.001
14	152207	47.700279462259	0.002
14	152223	47.750279462259	0.001
14	152594	47.800279462259	0.002
14	152610	47.850279462259	0.001
14	152981	47.900279462259	0.002
14	152997	47.950279462259	0.001
14	153368	48.000279462259	0.002
14	153384	48.050279462259	0.001
14	153755	48.100279462259	0.002
14	153771	48.150279462259	0.001
14	154126	48.200279462259	0.002
14	154142	48.250279462259	0.001
14	154513	48.300279462259	0.002
14	154529	48.350279462259	0.001
14	154900	48.400279462259	0.002
14	154916	48.450279462259	0.001
14	155287	48.500279462259	0.002
14	155303	48.550279462259	0.001
14	155658	48.600279462259	0.002
14	155674	48.650279462259	0.001
14	156061	48.700279462259	0.002
14	156077	48.750279462259	0.001
14	156448	48.800279462259	0.002
14	156464	48.850279462259	0.001
14	156819	48.900279462259	0.002
14	156835	48.950279462259	0.001
14	157206	49.000279462259	0.002
14	157222	49.050279462259	0.001
14	157577	49.100279462259	0.002
14	157593	49.150279462259	0.001
14	157948	49.200279462259	0.002
14	157964	49.250279462259	0.001
14	158335	49.300279462259	0.002
14	158351	49.350279462259	0.001
14	158722	49.400279462259	0.002
14	158738	49.450279462259	0.001
14	159125	49.500279462259	0.002
14	159141	49.550279462259	0.001
14	159501	49.600279462259	0.002
14	159517	49.650279462259	0.001
14	159872	49.700279462259	0.002
14	159888	49.750279462259	0.001
14	160243	49.800279462259	0.002
14	160259	49.850279462259	0.001
14	160614	49.900279462259	0.002
14	160630	49.950279462259	0.001
14	161001	50.000279462259	0.002
14	161017	50.050279462259	0.001
14	161366	50.100279462259	0.002
14	161382	50.150279462259	0.001
14	161737	50.200279462259	0.002
14	161753	50.250279462259	0.001
14	162124	50.300279462259	0.002
14	162140	50.350279462259	0.001
14	162495	50.400279462259	0.002
14	162511	50.450279462259	0.001
14	162882	50.500279462259	0.002
14	162898	50.550279462259	0.001
14	163285	50.600279462259	0.002
14	163301	50.650279462259	0.001
14	163661	50.700279462259	0.002
14	163677	50.750279462259	0.001
14	164048	50.800279462259	0.002
14	164064	50.850279462259	0.001
14	164435	50.900279462259	0.002
14	164451	50.950279462259	0.001
14	164838	51.000279462259	0.002
14	164854	51.050279462259	0.001
14	165225	51.100279462259	0.002
14	165241	51.150279462259	0.001
14	165628	51.200279462259	0.002
14	165644	51.250279462259	0.001
14	166031	51.300279462259	0.002
14	166047	51.350279462259	0.001
14	166418	51.400279462259	0.002
14	166434	51.450279462259	0.001
14	166821	51.500279462259	0.002
14	166837	51.550279462259	0.001
14	167208	51.600279462259	0.002
14	167224	51.650279462259	0.001
14	167595	51.700279462259	0.002
14	167611	51.750279462259	0.001
14	167982	51.800279462259	0.002
14	167998	51.850279462259	0.001
14	168369	51.900279462259	0.002
14	168385	51.950279462259	0.001
14	168756	52.000279462259	0.002
14	168772	52.050279462259	0.001
14	169121	52.100279462259	0.002
14	169137	52.150279462259	0.001
14	169497	52.200279462259	0.002
14	169513	52.250279462259	0.001
14	169873	52.300279462259	0.002
14	169889	52.350279462259	0.001
14	170276	52.400279462259	0.002
14	170292	52.450279462259	0.001
14	170663	52.500279462259	0.002
14	170679	52.550279462259	0.001
14	171066	52.600279462259	0.002
14	171082	52.650279462259	0.001
14	171453	52.700279462259	0.002
14	171469	52.750279462259	0.001
14	171840	52.800279462259	0.002
14	171856	52.850279462259	0.001
14	172216	52.900279462259	0.002
14	172232	52.950279462259	0.001
14	172592	53.000279462259	0.002
14	172608	53.050279462259	0.001
14	172979	53.100279462259	0.002
14	172995	53.150279462259	0.001
14	173350	53.200279462259	0.002
14	173366	53.250279462259	0.001
14	173726	53.300279462259	0.002
14	173742	53.350279462259	0.001
14	174102	53.400279462259	0.002
14	174118	53.450279462259	0.001
14	174489	53.500279462259	0.002
14	174505	53.550279462259	0.001
14	174876	53.600279462259	0.002
14	174892	53.650279462259	0.001
14	175263	53.700279462259	0.002
14	175279	53.750279462259	0.001
14	175650	53.800279462259	0.002
14	175666	53.850279462259	0.001
14	176037	53.900279462259	0.002
14	176053	53.950279462259	0.001
14	176424	54.000279462259	0.002
14	176440	54.050279462259	0.001
14	176811	54.100279462259	0.002
14	176827	54.150279462259	0.001
14	177187	54.200279462259	0.002
14	177203	54.250279462259	0.001
14	177574	54.300279462259	0.002
14	177590	54.350279462259	0.001
14	177945	54.400279462259	0.002
14	177961	54.450279462259	0.001
14	178332	54.500279462259	0.002
14	178348	54.550279462259	0.001
14	178719	54.600279462259	0.002
14	178735	54.650279462259	0.001
14	179106	54.700279462259	0.002
14	179122	54.750279462259	0.001
14	179509	54.800279462259	0.002
14	179525	54.850279462259	0.001
14	179874	54.900279462259	0.002
14	179890	54.950279462259	0.001
14	180245	55.000279462259	0.002
14	180261	55.050279462259	0.001
14	180610	55.100279462259	0.002
14	180626	55.150279462259	0.001
14	180986	55.200279462259	0.002
14	181002	55.250279462259	0.001
14	181357	55.300279462259	0.002
14	181373	55.350279462259	0.001
14	181722	55.400279462259	0.002
14	181738	55.450279462259	0.001
14	182125	55.500279462259	0.002
14	182141	55.550279462259	0.001
14	182501	55.600279462259	0.002
14	182517	55.650279462259	0.001
14	182888	55.700279462259	0.002
14	182904	55.750279462259	0.001
14	183291	55.800279462259	0.002
14	183307	55.850279462259	0.001
14	183678	55.900279462259	0.002
14	183694	55.950279462259	0.001
14	184065	56.000279462259	0.002
14	184081	56.050279462259	0.001
14	184436	56.100279462259	0.002
14	184452	56.150279462259	0.001
14	184839	56.200279462259	0.002
14	184855	56.250279462259	0.001
14	185226	56.300279462259	0.002
14	185242	56.350279462259	0.001
14	185602	56.400279462259	0.002
14	185618	56.450279462259	0.001
14	185989	56.500279462259	0.002
14	186005	56.550279462259	0.001
14	186360	56.600279462259	0.002
14	186376	56.650279462259	0.001
14	186763	56.700279462259	0.002
14	186779	56.750279462259	0.001
14	187166	56.800279462259	0.002
14	187182	56.850279462259	0.001
14	187553	56.900279462259	0.002
14	187569	56.950279462259	0.001
14	187940	57.000279462259	0.002
14	187956	57.050279462259	0.001
14	188316	57.100279462259	0.002
14	188332	57.150279462259	0.001
14	188719	57.200279462259	0.002
14	188735	57.250279462259	0.001
14	189106	57.300279462259	0.002
14	189122	57.350279462259	0.001
14	189493	57.400279462259	0.002
14	189509	57.450279462259	0.001
14	189880	57.500279462259	0.002
14	189896	57.550279462259	0.001
14	190256	57.600279462259	0.002
14	190272	57.650279462259	0.001
14	190632	57.700279462259	0.002
14	190648	57.750279462259	0.001
14	191019	57.800279462259	0.002
14	191035	57.850279462259	0.001
14	191406	57.900279462259	0.002
14	191422	57.950279462259	0.001
14	191793	58.000279462259	0.002
14	191809	58.050279462259	0.001
14	192164	58.100279462259	0.002
14	192180	58.150279462259	0.001
14	192551	58.200279462259	0.002
14	192567	58.250279462259	0.001
14	192922	58.300279462259	0.002
14	192938	58.350279462259	0.001
14	193309	58.400279462259	0.002
14	193325	58.450279462259	0.001
14	193685	58.500279462259	0.002
14	193701	58.550279462259	0.001
14	194072	58.600279462259	0.002
14	194088	58.650279462259	0.001
14	194459	58.700279462259	0.002
14	194475	58.750279462259	0.001
14	194846	58.800279462259	0.002
14	194862	58.850279462259	0.001
14	195233	58.900279462259	0.002
14	195249	58.950279462259	0.001
14	195598	59.000279462259	0.002
14	195614	59.050279462259	0.001
14	195985	59.100279462259	0.002
14	196001	59.150279462259	0.001
14	196361	59.200279462259	0.002
14	196377	59.250279462259	0.001
14	196732	59.300279462259	0.002
14	196748	59.350279462259	0.001
14	197103	59.400279462259	0.002
14	197119	59.450279462259	0.001
14	197490	59.500279462259	0.002
14	197506	59.550279462259	0.001
14	197877	59.600279462259	0.002
14	197893	59.650279462259	0.001
14	198264	59.700279462259	0.002
14	198280	59.750279462259	0.001
14	198640	59.800279462259	0.002
14	198656	59.850279462259	0.001
14	199027	59.900279462259	0.002
14	199043	59.950279462259	0.001
14	199414	60.000279462259	0.002
14	199430	60.050279462259	0.001
14	199785	60.100279462259	0.002
14	199801	60.150279462259	0.001
14	200172	60.200279462259	0.002
14	200188	60.250279462259	0.001
14	200548	60.300279462259	0.002
14	200564	60.350279462259	0.001
14	200935	60.400279462259	0.002
14	200951	60.450279462259	0.001
14	201322	60.500279462259	0.002
14	201338	60.550279462259	0.001
14	201709	60.600279462259	0.002
14	201725	60.650279462259	0.001
14	202085	60.700279462259	0.002
14	202101	60.750279462259	0.001
14	202472	60.800279462259	0.002
14	202488	60.850279462259	0.001
14	202848	60.900279462259	0.002
14	202864	60.950279462259	0.001
14	203235	61.000279462259	0.002
14	203251	61.050279462259	0.001
14	203638	61.100279462259	0.002
14	203654	61.150279462259	0.001
14	204041	61.200279462259	0.002
14	204057	61.250279462259	0.001
14	204428	61.300279462259	0.002
14	204444	61.350279462259	0.001
14	204804	61.400279462259	0.002
14	204820	61.450279462259	0.001
14	205191	61.500279462259	0.002
14	205207	61.550279462259	0.001
14	205577	61.600279462259	0.002
14	205590	61.650279462259	0.001
14	205852	61.700279462259	0.002
14	205865	61.750279462259	0.001
14	206127	61.800279462259	0.002
14	206140	61.850279462259	0.001
14	206380	61.900279462259	0.002
14	206393	61.950279462259	0.001
14	206642	62.000279462259	0.002
14	206655	62.050279462259	0.001
14	206904	62.100279462259	0.002
14	206917	62.150279462259	0.001
14	207179	62.200279462259	0.002
14	207192	62.250279462259	0.001
14	207441	62.300279462259	0.002
14	207454	62.350279462259	0.001
14	207694	62.400279462259	0.002
14	207707	62.450279462259	0.001
14	207947	62.500279462259	0.002
14	207960	62.550279462259	0.001
14	208222	62.600279462259	0.002
14	208235	62.650279462259	0.001
14	208484	62.700279462259	0.002
14	208497	62.750279462259	0.001
14	208746	62.800279462259	0.002
14	208759	62.850279462259	0.001
14	209008	62.900279462259	0.002
14	209021	62.950279462259	0.001
14	209270	63.000279462259	0.002
14	209283	63.050279462259	0.001
14	209532	63.100279462259	0.002
14	209545	63.150279462259	0.001
14	209794	63.200279462259	0.002
14	209807	63.250279462259	0.001
14	210056	63.300279462259	0.002
14	210069	63.350279462259	0.001
14	210318	63.400279462259	0.002
14	210331	63.450279462259	0.001
14	210593	63.500279462259	0.002
14	210606	63.550279462259	0.001
14	210855	63.600279462259	0.002
14	210868	63.650279462259	0.001
14	211108	63.700279462259	0.002
14	211121	63.750279462259	0.001
14	211370	63.800279462259	0.002
14	211383	63.850279462259	0.001
14	211645	63.900279462259	0.002
14	211658	63.950279462259	0.001
14	211907	64.000279462259	0.002
14	211920	64.050279462259	0.001
14	212182	64.100279462259	0.002
14	212195	64.150279462259	0.001
14	212457	64.200279462259	0.002
14	212470	64.250279462259	0.001
14	212732	64.300279462259	0.002
14	212745	64.350279462259	0.001
14	213007	64.400279462259	0.002
14	213020	64.450279462259	0.001
14	213282	64.500279462259	0.002
14	213295	64.550279462259	0.001
14	213544	64.600279462259	0.002
14	213557	64.650279462259	0.001
14	213796	64.700279462259	0.002
14	213806	64.750279462259	0.001
14	213967	64.800279462259	0.002
14	213977	64.850279462259	0.001
14	214138	64.900279462259	0.002
14	214148	64.950279462259	0.001
14	214309	65.000279462259	0.002
14	214319	65.050279462259	0.001
14	214470	65.100279462259	0.002
14	214480	65.150279462259	0.001
14	214641	65.200279462259	0.002
14	214651	65.250279462259	0.001
14	214812	65.300279462259	0.002
14	214822	65.350279462259	0.001
14	214973	65.400279462259	0.002
14	214983	65.450279462259	0.001
14	215134	65.500279462259	0.002
14	215144	65.550279462259	0.001
14	215295	65.600279462259	0.002
14	215305	65.650279462259	0.001
14	215456	65.700279462259	0.002
14	215466	65.750279462259	0.001
14	215627	65.800279462259	0.002
14	215637	65.850279462259	0.001
14	215788	65.900279462259	0.002
14	215798	65.950279462259	0.001
14	215959	66.000279462259	0.002
14	215969	66.050279462259	0.001
14	216130	66.100279462259	0.002
14	216140	66.150279462259	0.001
14	216301	66.200279462259	0.002
14	216311	66.250279462259	0.001
14	216472	66.300279462259	0.002
14	216482	66.350279462259	0.001
14	216643	66.400279462259	0.002
14	216653	66.450279462259	0.001
14	216814	66.500279462259	0.002
14	216824	66.550279462259	0.001
14	216985	66.600279462259	0.002
14	216995	66.650279462259	0.001
14	217156	66.700279462259	0.002
14	217166	66.750279462259	0.001
14	217327	66.800279462259	0.002
14	217337	66.850279462259	0.001
14	217498	66.900279462259	0.002
14	217508	66.950279462259	0.001
14	217659	67.000279462259	0.002
14	217669	67.050279462259	0.001
14	217820	67.100279462259	0.002
14	217830	67.150279462259	0.001
14	217991	67.200279462259	0.002
14	218001	67.250279462259	0.001
14	218162	67.300279462259	0.002
14	218172	67.350279462259	0.001
14	218333	67.400279462259	0.002
14	218343	67.450279462259	0.001
14	218504	67.500279462259	0.002
14	218514	67.550279462259	0.001
14	218674	67.600279462259	0.002
14	218681	67.650279462259	0.001
14	218765	67.700279462259	0.002
14	218772	67.750279462259	0.001
14	218856	67.800279462259	0.002
14	218863	67.850279462259	0.001
14	218947	67.900279462259	0.002
14	218954	67.950279462259	0.001
14	219038	68.000279462259	0.002
14	219045	68.050279462259	0.001
14	219129	68.100279462259	0.002
14	219136	68.150279462259	0.001
14	219220	68.200279462259	0.002
14	219227	68.250279462259	0.001
14	219311	68.300279462259	0.002
14	219318	68.350279462259	0.001
14	219402	68.400279462259	0.002
14	219409	68.450279462259	0.001
14	219493	68.500279462259	0.002
14	219500	68.550279462259	0.001
14	219584	68.600279462259	0.002
14	219591	68.650279462259	0.001
14	219675	68.700279462259	0.002
14	219682	68.750279462259	0.001
14	219766	68.800279462259	0.002
14	219773	68.850279462259	0.001
14	219857	68.900279462259	0.002
14	219864	68.950279462259	0.001
14	219948	69.000279462259	0.002
14	219955	69.050279462259	0.001
14	220039	69.100279462259	0.002
14	220046	69.150279462259	0.001
14	220130	69.200279462259	0.002
14	220137	69.250279462259	0.001
14	220221	69.300279462259	0.002
14	220228	69.350279462259	0.001
14	220312	69.400279462259	0.002
14	220319	69.450279462259	0.001
14	220403	69.500279462259	0.002
14	220410	69.550279462259	0.001
14	220494	69.600279462259	0.002
14	220501	69.650279462259	0.001
14	220585	69.700279462259	0.002
14	220592	69.750279462259	0.001
14	220676	69.800279462259	0.002
14	220683	69.850279462259	0.001
14	220767	69.900279462259	0.002
14	220774	69.950279462259	0.001
14	220858	70.000279462259	0.002
14	220865	70.050279462259	0.001
14	220949	70.100279462259	0.002
14	220956	70.150279462259	0.001
14	221040	70.200279462259	0.002
14	221047	70.250279462259	0.001
14	221131	70.300279462259	0.002
14	221138	70.350279462259	0.001
14	221222	70.400279462259	0.002
14	221229	70.450279462259	0.001
14	221313	70.500279462259	0.002
14	221320	70.550279462259	0.001
14	221404	70.600279462259	0.002
14	221411	70.650279462259	0.001
14	221494	70.700279462259	0.002
14	221498	70.750279462259	0.001
14	221529	70.800279462259	0.002
14	221533	70.850279462259	0.001
14	221564	70.900279462259	0.002
14	221568	70.950279462259	0.001
14	221599	71.000279462259	0.002
14	221603	71.050279462259	0.001
14	221634	71.100279462259	0.002
14	221638	71.150279462259	0.001
14	221669	71.200279462259	0.002
14	221673	71.250279462259	0.001
14	221704	71.300279462259	0.002
14	221708	71.350279462259	0.001
14	221739	71.400279462259	0.002
14	221743	71.450279462259	0.001
14	221774	71.500279462259	0.002
14	221778	71.550279462259	0.001
14	221809	71.600279462259	0.002
14	221813	71.650279462259	0.001
14	221844	71.700279462259	0.002
14	221848	71.750279462259	0.001
14	221879	71.800279462259	0.002
14	221883	71.850279462259	0.001
14	221914	71.900279462259	0.002
14	221918	71.950279462259	0.001
14	221949	72.000279462259	0.002
14	221953	72.050279462259	0.001
14	221984	72.100279462259	0.002
14	221988	72.150279462259	0.001
14	222019	72.200279462259	0.002
14	222023	72.250279462259	0.001
14	222054	72.300279462259	0.002
14	222058	72.350279462259	0.001
14	222089	72.400279462259	0.002
14	222093	72.450279462259	0.001
14	222124	72.500279462259	0.002
14	222128	72.550279462259	0.001
14	222159	72.600279462259	0.002
14	222163	72.650279462259	0.001
14	222194	72.700279462259	0.002
14	222198	72.750279462259	0.001
14	222229	72.800279462259	0.002
14	222233	72.850279462259	0.001
14	222264	72.900279462259	0.002
14	222268	72.950279462259	0.001
14	222299	73.000279462259	0.002
14	222303	73.050279462259	0.001
14	222334	73.100279462259	0.002
14	222338	73.150279462259	0.001
14	222369	73.200279462259	0.002
14	222373	73.250279462259	0.001
14	222404	73.300279462259	0.002
14	222408	73.350279462259	0.001
14	222439	73.400279462259	0.002
14	222443	73.450279462259	0.001
14	222474	73.500279462259	0.002
14	222478	73.550279462259	0.001
14	222508	73.600279462259	0.002
14	222509	73.650279462259	0.001
14	222510	73.700279462259	0.002
14	222511	73.750279462259	0.001
14	222512	73.800279462259	0.002
14	222513	73.850279462259	0.001
14	222514	73.900279462259	0.002
14	222515	73.950279462259	0.001
14	222516	74.000279462259	0.002
14	222517	74.050279462259	0.001
14	222518	74.100279462259	0.002
14	222519	74.150279462259	0.001
14	222520	74.200279462259	0.002
14	222521	74.250279462259	0.001
14	222522	74.300279462259	0.002
14	222523	74.350279462259	0.001
14	222524	74.400279462259	0.002
14	222525	74.450279462259	0.001
14	222526	74.500279462259	0.002
14	222527	74.550279462259	0.001
14	222528	74.600279462259	0.002
14	222529	74.650279462259	0.001
14	222530	74.700279462259	0.002
14	222531	74.750279462259	0.001
14	222532	74.800279462259	0.002
14	222533	74.850279462259	0.001
14	222534	74.900279462259	0.002
14	222535	74.950279462259	0.001
14	222536	75.000279462259	0.002
14	222537	75.050279462259	0.001
14	222538	75.100279462259	0.002
14	222539	75.150279462259	0.001
14	222540	75.200279462259	0.002
14	222541	75.250279462259	0.001
14	222542	75.300279462259	0.002
14	222543	75.350279462259	0.001
14	222544	75.400279462259	0.002
14	222545	75.450279462259	0.001
14	222546	75.500279462259	0.002
14	222547	75.550279462259	0.001
14	222548	75.600279462259	0.002
14	222549	75.650279462259	0.001
14	222550	75.700279462259	0.002
14	222551	75.750279462259	0.001
14	222552	75.800279462259	0.002
14	222553	75.850279462259	0.001
14	222554	75.900279462259	0.002
14	222555	75.950279462259	0.001
