version 2
run VoIP-30ms_280B-7-20160923-14:14:25-14687
attr configname VoIP-30ms_280B
attr datetime 20160923-14:14:25
attr experiment VoIP-30ms_280B
attr inifile omnetpp.ini
attr iterationvars ""
attr iterationvars2 $repetition=7
attr measurement ""
attr network SymScenerio
attr processid 14687
attr repetition 7
attr replication #7
attr resultdir results
attr runnumber 7
attr seedset 7
param **.coreDebug false
param **.debug false
param *.**.nic.mac1609_4.bitrate 18Mbps
param *.**.nic.mac1609_4.txPower 20mW
param *.**.nic.mac1609_4.useServiceChannel true
param *.**.nic.phy80211p.analogueModels "xmldoc(\"config.xml\")"
param *.**.nic.phy80211p.decider "xmldoc(\"config.xml\")"
param *.**.nic.phy80211p.sensitivity -89dBm
param *.**.nic.phy80211p.thermalNoise -110dBm
param *.**.nic.phy80211p.usePropagationDelay true
param *.**.nic.phy80211p.useThermalNoise true
param *.annotations.draw false
param *.connectionManager.alpha 2.0
param *.connectionManager.carrierFrequency "5.890e9 Hz"
param *.connectionManager.pMax 20mW
param *.connectionManager.sat -89dBm
param *.connectionManager.sendDirect true
param *.manager.autoShutdown true
param *.manager.host "\"localhost\""
param *.manager.launchConfig "xmldoc(\"map.launchd.xml\")"
param *.manager.margin 25
param *.manager.moduleDisplayString "\"\""
param *.manager.moduleName "\"node\""
param *.manager.moduleType "\"symulacja.veins.nodes.Car\""
param *.manager.port 9999
param *.manager.updateInterval 0.1s
param *.node[*].appl.beaconInterval 1s
param *.node[*].appl.beaconPriority 3
param *.node[*].appl.dataOnSch false
param *.node[*].appl.dataPriority 2
param *.node[*].appl.debug false
param *.node[*].appl.maxOffset 0.005s
param *.node[*].appl.sendBeacons false
param *.node[*].appl.sendData true
param *.node[*].appl.sendVoIP true
param *.node[*].appl.voipInterval 0.030s
param *.node[*].appl.voipLengthBits 2240bits
param *.node[*].appl.voipOnSch true
param *.node[*].appl.voipPriority 3
param *.node[*].applType "\"Sym11p\""
param *.node[*].veinsmobility.x 0
param *.node[*].veinsmobility.y 0
param *.node[*].veinsmobility.z 1.895
param *.node[*].veinsmobilityType "\"symulacja.veins.modules.mobility.traci.TraCIMobility\""
param *.playgroundSizeX 9000m
param *.playgroundSizeY 9000m
param *.playgroundSizeZ 50m
param *.rsu[*].appl.beaconInterval 1s
param *.rsu[*].appl.beaconPriority 3
param *.rsu[*].appl.dataOnSch false
param *.rsu[*].appl.dataPriority 2
param *.rsu[*].appl.debug false
param *.rsu[*].appl.headerLength "256 bit"
param *.rsu[*].appl.maxOffset 0.005s
param *.rsu[*].appl.sendBeacons false
param *.rsu[*].appl.sendData false
param *.rsu[*].appl.sendVoIP false
param *.rsu[*].applType "\"SymRSU11p\""
param *.rsu[0].mobility.x 2160
param *.rsu[0].mobility.y 3100
param *.rsu[0].mobility.z 3
param *.world.use2D false
param *.world.useTorus false

vector 14  SymScenerio.rsu[0].nic.mac1609_4  "Interwały kanałów"  ETV
vector 23  SymScenerio.node[0].veinsmobility  posx  ETV
vector 24  SymScenerio.node[0].veinsmobility  posy  ETV
vector 22  SymScenerio.node[0].nic.mac1609_4  "Interwały kanałów"  ETV
vector 25  SymScenerio.node[0].veinsmobility  speed  ETV
vector 26  SymScenerio.node[0].veinsmobility  acceleration  ETV
vector 27  SymScenerio.node[0].veinsmobility  co2emission  ETV
vector 15  SymScenerio.node[0].appl  "TX Packets"  ETV
vector 16  SymScenerio.node[0].appl  "TX Total"  ETV
vector 17  SymScenerio.node[0].appl  Pakietyzacja  ETV
vector 5  SymScenerio.rsu[0].appl  nodeALL:vector  ETV
attr source  nodeALL
attr title  "Opoznienia ALL, vector"
vector 9  SymScenerio.rsu[0].appl  "RX Packet"  ETV
vector 0  SymScenerio.rsu[0].appl  node0:vector  ETV
attr source  node0
attr title  "Opoznienia node0, vector"
vector 36  SymScenerio.node[1].veinsmobility  posx  ETV
vector 37  SymScenerio.node[1].veinsmobility  posy  ETV
vector 35  SymScenerio.node[1].nic.mac1609_4  "Interwały kanałów"  ETV
vector 38  SymScenerio.node[1].veinsmobility  speed  ETV
vector 39  SymScenerio.node[1].veinsmobility  acceleration  ETV
vector 40  SymScenerio.node[1].veinsmobility  co2emission  ETV
vector 28  SymScenerio.node[1].appl  "TX Packets"  ETV
vector 29  SymScenerio.node[1].appl  "TX Total"  ETV
vector 30  SymScenerio.node[1].appl  Pakietyzacja  ETV
vector 1  SymScenerio.rsu[0].appl  node1:vector  ETV
attr source  node1
attr title  "Opoznienia node1, vector"
vector 49  SymScenerio.node[2].veinsmobility  posx  ETV
vector 50  SymScenerio.node[2].veinsmobility  posy  ETV
vector 48  SymScenerio.node[2].nic.mac1609_4  "Interwały kanałów"  ETV
vector 51  SymScenerio.node[2].veinsmobility  speed  ETV
vector 41  SymScenerio.node[2].appl  "TX Packets"  ETV
vector 42  SymScenerio.node[2].appl  "TX Total"  ETV
vector 43  SymScenerio.node[2].appl  Pakietyzacja  ETV
vector 2  SymScenerio.rsu[0].appl  node2:vector  ETV
attr source  node2
attr title  "Opoznienia node2, vector"
vector 52  SymScenerio.node[2].veinsmobility  acceleration  ETV
vector 53  SymScenerio.node[2].veinsmobility  co2emission  ETV
vector 62  SymScenerio.node[3].veinsmobility  posx  ETV
vector 63  SymScenerio.node[3].veinsmobility  posy  ETV
vector 61  SymScenerio.node[3].nic.mac1609_4  "Interwały kanałów"  ETV
vector 64  SymScenerio.node[3].veinsmobility  speed  ETV
vector 65  SymScenerio.node[3].veinsmobility  acceleration  ETV
vector 66  SymScenerio.node[3].veinsmobility  co2emission  ETV
vector 54  SymScenerio.node[3].appl  "TX Packets"  ETV
vector 55  SymScenerio.node[3].appl  "TX Total"  ETV
vector 56  SymScenerio.node[3].appl  Pakietyzacja  ETV
vector 3  SymScenerio.rsu[0].appl  node3:vector  ETV
attr source  node3
attr title  "Opoznienia node3, vector"
vector 75  SymScenerio.node[4].veinsmobility  posx  ETV
vector 76  SymScenerio.node[4].veinsmobility  posy  ETV
vector 74  SymScenerio.node[4].nic.mac1609_4  "Interwały kanałów"  ETV
vector 77  SymScenerio.node[4].veinsmobility  speed  ETV
vector 78  SymScenerio.node[4].veinsmobility  acceleration  ETV
vector 79  SymScenerio.node[4].veinsmobility  co2emission  ETV
vector 67  SymScenerio.node[4].appl  "TX Packets"  ETV
vector 68  SymScenerio.node[4].appl  "TX Total"  ETV
vector 69  SymScenerio.node[4].appl  Pakietyzacja  ETV
vector 4  SymScenerio.rsu[0].appl  node4:vector  ETV
attr source  node4
attr title  "Opoznienia node4, vector"
17	52	1.06899475811	1.002
17	67	1.09899475811	1.002
17	72	1.12899475811	1.002
17	102	1.15899475811	1.002
17	117	1.18899475811	1.002
17	135	1.21899475811	1.002
17	137	1.24899475811	1.002
17	167	1.27899475811	1.002
17	185	1.30899475811	1.002
17	187	1.33899475811	1.002
17	217	1.36899475811	1.002
17	232	1.39899475811	1.002
17	237	1.42899475811	1.002
17	267	1.45899475811	1.002
17	282	1.48899475811	1.002
17	300	1.51899475811	1.002
17	302	1.54899475811	1.002
17	332	1.57899475811	1.002
17	350	1.60899475811	1.002
17	352	1.63899475811	1.002
17	382	1.66899475811	1.002
17	397	1.69899475811	1.002
17	402	1.72899475811	1.002
17	432	1.75899475811	1.002
17	447	1.78899475811	1.002
17	465	1.81899475811	1.002
17	467	1.84899475811	1.002
17	497	1.87899475811	1.002
17	515	1.90899475811	1.002
17	517	1.93899475811	1.002
17	547	1.96899475811	1.002
17	562	1.99899475811	1.002
17	567	2.02899475811	1.002
17	597	2.05899475811	1.002
17	612	2.08899475811	1.002
17	630	2.11899475811	1.002
17	632	2.14899475811	1.002
17	662	2.17899475811	1.002
17	680	2.20899475811	1.002
17	682	2.23899475811	1.002
17	712	2.26899475811	1.002
17	727	2.29899475811	1.002
17	732	2.32899475811	1.002
17	762	2.35899475811	1.002
17	777	2.38899475811	1.002
17	795	2.41899475811	1.002
17	797	2.44899475811	1.002
17	827	2.47899475811	1.002
17	845	2.50899475811	1.002
17	847	2.53899475811	1.002
17	877	2.56899475811	1.002
17	892	2.59899475811	1.002
17	897	2.62899475811	1.002
17	927	2.65899475811	1.002
17	942	2.68899475811	1.002
17	960	2.71899475811	1.002
17	962	2.74899475811	1.002
17	992	2.77899475811	1.002
17	1010	2.80899475811	1.002
17	1012	2.83899475811	1.002
17	1042	2.86899475811	1.002
17	1057	2.89899475811	1.002
17	1062	2.92899475811	1.002
17	1092	2.95899475811	1.002
17	1107	2.98899475811	1.002
17	1125	3.01899475811	1.002
17	1127	3.04899475811	1.002
17	1157	3.07899475811	1.002
17	1175	3.10899475811	1.002
17	1177	3.13899475811	1.002
17	1220	3.16899475811	1.002
17	1241	3.19899475811	1.002
17	1247	3.22899475811	1.002
17	1290	3.25899475811	1.002
17	1311	3.28899475811	1.002
17	1336	3.31899475811	1.002
17	1340	3.34899475811	1.002
17	1423	3.37899475811	1.002
17	1450	3.40899475811	1.002
17	1454	3.43899475811	1.002
17	1549	3.46899475811	1.002
17	1591	3.49899475811	1.002
17	1599	3.52899475811	1.002
17	1682	3.55899475811	1.002
17	1724	3.58899475811	1.002
17	1751	3.61899475811	1.002
17	1755	3.64899475811	1.002
17	1850	3.67899475811	1.002
17	1877	3.70899475811	1.002
17	1881	3.73899475811	1.002
17	1976	3.76899475811	1.002
17	2018	3.79899475811	1.002
17	2026	3.82899475811	1.002
17	2109	3.85899475811	1.002
17	2151	3.88899475811	1.002
17	2178	3.91899475811	1.002
17	2182	3.94899475811	1.002
17	2277	3.97899475811	1.002
17	2304	4.00899475811	1.002
17	2308	4.03899475811	1.002
17	2403	4.06899475811	1.002
17	2445	4.09899475811	1.002
17	2453	4.12899475811	1.002
17	2536	4.15899475811	1.002
17	2578	4.18899475811	1.002
17	2605	4.21899475811	1.002
17	2609	4.24899475811	1.002
17	2711	4.27899475811	1.002
17	2738	4.30899475811	1.002
17	2742	4.33899475811	1.002
17	2844	4.36899475811	1.002
17	2886	4.39899475811	1.002
17	2894	4.42899475811	1.002
17	2977	4.45899475811	1.002
17	3019	4.48899475811	1.002
17	3046	4.51899475811	1.002
17	3050	4.54899475811	1.002
17	3152	4.57899475811	1.002
17	3179	4.60899475811	1.002
17	3183	4.63899475811	1.002
17	3278	4.66899475811	1.002
17	3320	4.69899475811	1.002
17	3328	4.72899475811	1.002
17	3411	4.75899475811	1.002
17	3453	4.78899475811	1.002
17	3480	4.81899475811	1.002
17	3484	4.84899475811	1.002
17	3579	4.87899475811	1.002
17	3606	4.90899475811	1.002
17	3610	4.93899475811	1.002
17	3712	4.96899475811	1.002
17	3754	4.99899475811	1.002
17	3762	5.02899475811	1.002
17	3845	5.05899475811	1.002
17	3887	5.08899475811	1.002
17	3914	5.11899475811	1.002
17	3918	5.14899475811	1.002
17	4013	5.17899475811	1.002
17	4040	5.20899475811	1.002
17	4044	5.23899475811	1.002
17	4139	5.26899475811	1.002
17	4181	5.29899475811	1.002
17	4189	5.32899475811	1.002
17	4272	5.35899475811	1.002
17	4314	5.38899475811	1.002
17	4341	5.41899475811	1.002
17	4345	5.44899475811	1.002
17	4447	5.47899475811	1.002
17	4474	5.50899475811	1.002
17	4478	5.53899475811	1.002
17	4573	5.56899475811	1.002
17	4615	5.59899475811	1.002
17	4623	5.62899475811	1.002
17	4706	5.65899475811	1.002
17	4748	5.68899475811	1.002
17	4775	5.71899475811	1.002
17	4779	5.74899475811	1.002
17	4881	5.77899475811	1.002
17	4908	5.80899475811	1.002
17	4912	5.83899475811	1.002
17	5014	5.86899475811	1.002
17	5056	5.89899475811	1.002
17	5064	5.92899475811	1.002
17	5140	5.95899475811	1.002
17	5182	5.98899475811	1.002
17	5209	6.01899475811	1.002
17	5213	6.04899475811	1.002
17	5315	6.07899475811	1.002
17	5342	6.10899475811	1.002
17	5346	6.13899475811	1.002
17	5479	6.16899475811	1.002
17	5533	6.19899475811	1.002
17	5542	6.22899475811	1.002
17	5667	6.25899475811	1.002
17	5748	6.28899475811	1.002
17	5784	6.31899475811	1.002
17	5790	6.34899475811	1.002
17	5990	6.37899475811	1.002
17	6051	6.40899475811	1.002
17	6057	6.43899475811	1.002
17	6232	6.46899475811	1.002
17	6313	6.49899475811	1.002
17	6324	6.52899475811	1.002
17	6474	6.55899475811	1.002
17	6555	6.58899475811	1.002
17	6591	6.61899475811	1.002
17	6597	6.64899475811	1.002
17	6797	6.67899475811	1.002
17	6858	6.70899475811	1.002
17	6864	6.73899475811	1.002
17	7029	6.76899475811	1.002
17	7110	6.79899475811	1.002
17	7121	6.82899475811	1.002
17	7271	6.85899475811	1.002
17	7352	6.88899475811	1.002
17	7388	6.91899475811	1.002
17	7394	6.94899475811	1.002
17	7584	6.97899475811	1.002
17	7645	7.00899475811	1.002
17	7651	7.03899475811	1.002
17	7836	7.06899475811	1.002
17	7917	7.09899475811	1.002
17	7928	7.12899475811	1.002
17	8078	7.15899475811	1.002
17	8159	7.18899475811	1.002
17	8195	7.21899475811	1.002
17	8201	7.24899475811	1.002
17	8411	7.27899475811	1.002
17	8472	7.30899475811	1.002
17	8478	7.33899475811	1.002
17	8643	7.36899475811	1.002
17	8724	7.39899475811	1.002
17	8735	7.42899475811	1.002
17	8885	7.45899475811	1.002
17	8966	7.48899475811	1.002
17	9002	7.51899475811	1.002
17	9008	7.54899475811	1.002
17	9218	7.57899475811	1.002
17	9279	7.60899475811	1.002
17	9285	7.63899475811	1.002
17	9450	7.66899475811	1.002
17	9531	7.69899475811	1.002
17	9542	7.72899475811	1.002
17	9682	7.75899475811	1.002
17	9763	7.78899475811	1.002
17	9799	7.81899475811	1.002
17	9805	7.84899475811	1.002
17	9998	7.87899475811	1.002
17	10059	7.90899475811	1.002
17	10065	7.93899475811	1.002
17	10250	7.96899475811	1.002
17	10331	7.99899475811	1.002
17	10342	8.02899475811	1.002
17	10492	8.05899475811	1.002
17	10573	8.08899475811	1.002
17	10609	8.11899475811	1.002
17	10615	8.14899475811	1.002
17	10825	8.17899475811	1.002
17	10886	8.20899475811	1.002
17	10892	8.23899475811	1.002
17	11067	8.26899475811	1.002
17	11148	8.29899475811	1.002
17	11159	8.32899475811	1.002
17	11309	8.35899475811	1.002
17	11390	8.38899475811	1.002
17	11426	8.41899475811	1.002
17	11432	8.44899475811	1.002
17	11642	8.47899475811	1.002
17	11703	8.50899475811	1.002
17	11709	8.53899475811	1.002
17	11894	8.56899475811	1.002
17	11975	8.59899475811	1.002
17	11986	8.62899475811	1.002
17	12136	8.65899475811	1.002
17	12217	8.68899475811	1.002
17	12253	8.71899475811	1.002
17	12259	8.74899475811	1.002
17	12469	8.77899475811	1.002
17	12530	8.80899475811	1.002
17	12536	8.83899475811	1.002
17	12711	8.86899475811	1.002
17	12792	8.89899475811	1.002
17	12803	8.92899475811	1.002
17	12953	8.95899475811	1.002
17	13034	8.98899475811	1.002
17	13070	9.01899475811	1.002
17	13076	9.04899475811	1.002
17	13266	9.07899475811	1.002
17	13327	9.10899475811	1.002
17	13333	9.13899475811	1.002
17	13548	9.16899475811	1.002
17	13647	9.19899475811	1.002
17	13659	9.22899475811	1.002
17	13843	9.25899475811	1.002
17	13942	9.28899475811	1.002
17	13985	9.31899475811	1.002
17	13991	9.34899475811	1.002
17	14237	9.37899475811	1.002
17	14311	9.40899475811	1.002
17	14317	9.43899475811	1.002
17	14520	9.46899475811	1.002
17	14619	9.49899475811	1.002
17	14631	9.52899475811	1.002
17	14815	9.55899475811	1.002
17	14914	9.58899475811	1.002
17	14957	9.61899475811	1.002
17	14963	9.64899475811	1.002
17	15209	9.67899475811	1.002
17	15283	9.70899475811	1.002
17	15289	9.73899475811	1.002
17	15517	9.76899475811	1.002
17	15616	9.79899475811	1.002
17	15628	9.82899475811	1.002
17	15845	9.85899475811	1.002
17	15977	9.88899475811	1.002
17	16053	9.91899475811	1.002
17	16061	9.94899475811	1.002
17	16358	9.97899475811	1.002
17	16465	10.00899475811	1.002
17	16473	10.03899475811	1.002
17	16730	10.06899475811	1.002
17	16862	10.09899475811	1.002
17	16876	10.12899475811	1.002
17	17111	10.15899475811	1.002
17	17243	10.18899475811	1.002
17	17319	10.21899475811	1.002
17	17327	10.24899475811	1.002
17	17624	10.27899475811	1.002
17	17731	10.30899475811	1.002
17	17739	10.33899475811	1.002
17	18005	10.36899475811	1.002
17	18137	10.39899475811	1.002
17	18151	10.42899475811	1.002
17	18390	10.45899475811	1.002
17	18522	10.48899475811	1.002
17	18598	10.51899475811	1.002
17	18606	10.54899475811	1.002
17	18903	10.57899475811	1.002
17	19010	10.60899475811	1.002
17	19018	10.63899475811	1.002
17	19284	10.66899475811	1.002
17	19416	10.69899475811	1.002
17	19430	10.72899475811	1.002
17	19656	10.75899475811	1.002
17	19788	10.78899475811	1.002
17	19864	10.81899475811	1.002
17	19872	10.84899475811	1.002
17	20169	10.87899475811	1.002
17	20276	10.90899475811	1.002
17	20284	10.93899475811	1.002
17	20541	10.96899475811	1.002
17	20673	10.99899475811	1.002
17	20687	11.02899475811	1.002
17	20922	11.05899475811	1.002
17	21054	11.08899475811	1.002
17	21130	11.11899475811	1.002
17	21138	11.14899475811	1.002
17	21435	11.17899475811	1.002
17	21542	11.20899475811	1.002
17	21550	11.23899475811	1.002
17	21820	11.26899475811	1.002
17	21952	11.29899475811	1.002
17	21966	11.32899475811	1.002
17	22201	11.35899475811	1.002
17	22333	11.38899475811	1.002
17	22409	11.41899475811	1.002
17	22417	11.44899475811	1.002
17	22714	11.47899475811	1.002
17	22821	11.50899475811	1.002
17	22829	11.53899475811	1.002
17	23086	11.56899475811	1.002
17	23218	11.59899475811	1.002
17	23232	11.62899475811	1.002
17	23458	11.65899475811	1.002
17	23590	11.68899475811	1.002
17	23666	11.71899475811	1.002
17	23674	11.74899475811	1.002
17	23971	11.77899475811	1.002
17	24078	11.80899475811	1.002
17	24086	11.83899475811	1.002
17	24365	11.86899475811	1.002
17	24497	11.89899475811	1.002
17	24511	11.92899475811	1.002
17	24737	11.95899475811	1.002
17	24869	11.98899475811	1.002
17	24945	12.01899475811	1.002
17	24953	12.04899475811	1.002
17	25250	12.07899475811	1.002
17	25357	12.10899475811	1.002
17	25365	12.13899475811	1.002
17	25696	12.16899475811	1.002
17	25852	12.19899475811	1.002
17	25867	12.22899475811	1.002
17	26135	12.25899475811	1.002
17	26291	12.28899475811	1.002
17	26380	12.31899475811	1.002
17	26388	12.34899475811	1.002
17	26740	12.37899475811	1.002
17	26866	12.40899475811	1.002
17	26874	12.43899475811	1.002
17	27201	12.46899475811	1.002
17	27396	12.49899475811	1.002
17	27413	12.52899475811	1.002
17	27756	12.55899475811	1.002
17	27951	12.58899475811	1.002
17	28042	12.61899475811	1.002
17	28052	12.64899475811	1.002
17	28491	12.67899475811	1.002
17	28619	12.70899475811	1.002
17	28629	12.73899475811	1.002
17	29020	12.76899475811	1.002
17	29215	12.79899475811	1.002
17	29232	12.82899475811	1.002
17	29565	12.85899475811	1.002
17	29760	12.88899475811	1.002
17	29851	12.91899475811	1.002
17	29861	12.94899475811	1.002
17	30310	12.97899475811	1.002
17	30438	13.00899475811	1.002
17	30448	13.03899475811	1.002
17	30850	13.06899475811	1.002
17	31045	13.09899475811	1.002
17	31062	13.12899475811	1.002
17	31405	13.15899475811	1.002
17	31600	13.18899475811	1.002
17	31691	13.21899475811	1.002
17	31701	13.24899475811	1.002
17	32150	13.27899475811	1.002
17	32278	13.30899475811	1.002
17	32288	13.33899475811	1.002
17	32716	13.36899475811	1.002
17	32911	13.39899475811	1.002
17	32928	13.42899475811	1.002
17	33267	13.45899475811	1.002
17	33462	13.48899475811	1.002
17	33553	13.51899475811	1.002
17	33563	13.54899475811	1.002
17	33985	13.57899475811	1.002
17	34113	13.60899475811	1.002
17	34123	13.63899475811	1.002
17	34540	13.66899475811	1.002
17	34735	13.69899475811	1.002
17	34752	13.72899475811	1.002
17	35111	13.75899475811	1.002
17	35306	13.78899475811	1.002
17	35397	13.81899475811	1.002
17	35407	13.84899475811	1.002
17	35861	13.87899475811	1.002
17	35989	13.90899475811	1.002
17	35999	13.93899475811	1.002
17	36427	13.96899475811	1.002
17	36622	13.99899475811	1.002
17	36639	14.02899475811	1.002
17	36979	14.05899475811	1.002
17	37174	14.08899475811	1.002
17	37265	14.11899475811	1.002
17	37275	14.14899475811	1.002
17	37713	14.17899475811	1.002
17	37841	14.20899475811	1.002
17	37851	14.23899475811	1.002
17	38253	14.26899475811	1.002
17	38448	14.29899475811	1.002
17	38465	14.32899475811	1.002
17	38797	14.35899475811	1.002
17	38992	14.38899475811	1.002
17	39083	14.41899475811	1.002
17	39093	14.44899475811	1.002
17	39552	14.47899475811	1.002
17	39680	14.50899475811	1.002
17	39690	14.53899475811	1.002
17	40091	14.56899475811	1.002
17	40286	14.59899475811	1.002
17	40303	14.62899475811	1.002
17	40662	14.65899475811	1.002
17	40857	14.68899475811	1.002
17	40948	14.71899475811	1.002
17	40958	14.74899475811	1.002
17	41401	14.77899475811	1.002
17	41529	14.80899475811	1.002
17	41539	14.83899475811	1.002
17	41951	14.86899475811	1.002
17	42146	14.89899475811	1.002
17	42163	14.92899475811	1.002
17	42511	14.95899475811	1.002
17	42706	14.98899475811	1.002
17	42797	15.01899475811	1.002
17	42807	15.04899475811	1.002
17	43240	15.07899475811	1.002
17	43368	15.10899475811	1.002
17	43378	15.13899475811	1.002
17	43784	15.16899475811	1.002
17	43979	15.19899475811	1.002
17	43996	15.22899475811	1.002
17	44355	15.25899475811	1.002
17	44550	15.28899475811	1.002
17	44641	15.31899475811	1.002
17	44651	15.34899475811	1.002
17	45083	15.37899475811	1.002
17	45211	15.40899475811	1.002
17	45221	15.43899475811	1.002
17	45622	15.46899475811	1.002
17	45817	15.49899475811	1.002
17	45834	15.52899475811	1.002
17	46177	15.55899475811	1.002
17	46372	15.58899475811	1.002
17	46463	15.61899475811	1.002
17	46473	15.64899475811	1.002
17	46927	15.67899475811	1.002
17	47055	15.70899475811	1.002
17	47065	15.73899475811	1.002
17	47493	15.76899475811	1.002
17	47688	15.79899475811	1.002
17	47705	15.82899475811	1.002
17	48064	15.85899475811	1.002
17	48259	15.88899475811	1.002
17	48350	15.91899475811	1.002
17	48360	15.94899475811	1.002
17	48809	15.97899475811	1.002
17	48937	16.00899475811	1.002
17	48947	16.03899475811	1.002
17	49375	16.06899475811	1.002
17	49570	16.09899475811	1.002
17	49587	16.12899475811	1.002
17	49914	16.15899475811	1.002
17	50109	16.18899475811	1.002
17	50200	16.21899475811	1.002
17	50210	16.24899475811	1.002
17	50637	16.27899475811	1.002
17	50765	16.30899475811	1.002
17	50775	16.33899475811	1.002
17	51192	16.36899475811	1.002
17	51387	16.39899475811	1.002
17	51404	16.42899475811	1.002
17	51731	16.45899475811	1.002
17	51926	16.48899475811	1.002
17	52017	16.51899475811	1.002
17	52027	16.54899475811	1.002
17	52481	16.57899475811	1.002
17	52609	16.60899475811	1.002
17	52619	16.63899475811	1.002
17	53041	16.66899475811	1.002
17	53236	16.69899475811	1.002
17	53253	16.72899475811	1.002
17	53596	16.75899475811	1.002
17	53791	16.78899475811	1.002
17	53882	16.81899475811	1.002
17	53892	16.84899475811	1.002
17	54335	16.87899475811	1.002
17	54463	16.90899475811	1.002
17	54473	16.93899475811	1.002
17	54874	16.96899475811	1.002
17	55069	16.99899475811	1.002
17	55086	17.02899475811	1.002
17	55429	17.05899475811	1.002
17	55624	17.08899475811	1.002
17	55715	17.11899475811	1.002
17	55725	17.14899475811	1.002
17	56168	17.17899475811	1.002
17	56296	17.20899475811	1.002
17	56306	17.23899475811	1.002
17	56728	17.26899475811	1.002
17	56923	17.29899475811	1.002
17	56940	17.32899475811	1.002
17	57283	17.35899475811	1.002
17	57478	17.38899475811	1.002
17	57569	17.41899475811	1.002
17	57579	17.44899475811	1.002
17	58044	17.47899475811	1.002
17	58172	17.50899475811	1.002
17	58182	17.53899475811	1.002
17	58594	17.56899475811	1.002
17	58789	17.59899475811	1.002
17	58806	17.62899475811	1.002
17	59160	17.65899475811	1.002
17	59355	17.68899475811	1.002
17	59446	17.71899475811	1.002
17	59456	17.74899475811	1.002
17	59894	17.77899475811	1.002
17	60022	17.80899475811	1.002
17	60032	17.83899475811	1.002
17	60444	17.86899475811	1.002
17	60639	17.89899475811	1.002
17	60656	17.92899475811	1.002
17	60999	17.95899475811	1.002
17	61194	17.98899475811	1.002
17	61285	18.01899475811	1.002
17	61295	18.04899475811	1.002
17	61728	18.07899475811	1.002
17	61856	18.10899475811	1.002
17	61866	18.13899475811	1.002
17	62283	18.16899475811	1.002
17	62478	18.19899475811	1.002
17	62495	18.22899475811	1.002
17	62833	18.25899475811	1.002
17	63028	18.28899475811	1.002
17	63119	18.31899475811	1.002
17	63129	18.34899475811	1.002
17	63567	18.37899475811	1.002
17	63695	18.40899475811	1.002
17	63705	18.43899475811	1.002
17	64122	18.46899475811	1.002
17	64317	18.49899475811	1.002
17	64334	18.52899475811	1.002
17	64661	18.55899475811	1.002
17	64856	18.58899475811	1.002
17	64947	18.61899475811	1.002
17	64957	18.64899475811	1.002
17	65390	18.67899475811	1.002
17	65518	18.70899475811	1.002
17	65528	18.73899475811	1.002
17	65923	18.76899475811	1.002
17	66118	18.79899475811	1.002
17	66135	18.82899475811	1.002
17	66478	18.85899475811	1.002
17	66673	18.88899475811	1.002
17	66764	18.91899475811	1.002
17	66774	18.94899475811	1.002
17	67223	18.97899475811	1.002
17	67351	19.00899475811	1.002
17	67361	19.03899475811	1.002
17	67778	19.06899475811	1.002
17	67973	19.09899475811	1.002
17	67990	19.12899475811	1.002
17	68328	19.15899475811	1.002
17	68523	19.18899475811	1.002
17	68614	19.21899475811	1.002
17	68624	19.24899475811	1.002
17	69078	19.27899475811	1.002
17	69206	19.30899475811	1.002
17	69216	19.33899475811	1.002
17	69633	19.36899475811	1.002
17	69828	19.39899475811	1.002
17	69845	19.42899475811	1.002
17	70183	19.45899475811	1.002
17	70378	19.48899475811	1.002
17	70469	19.51899475811	1.002
17	70479	19.54899475811	1.002
17	70901	19.57899475811	1.002
17	71029	19.60899475811	1.002
17	71039	19.63899475811	1.002
17	71472	19.66899475811	1.002
17	71667	19.69899475811	1.002
17	71684	19.72899475811	1.002
17	72038	19.75899475811	1.002
17	72233	19.78899475811	1.002
17	72324	19.81899475811	1.002
17	72334	19.84899475811	1.002
17	72783	19.87899475811	1.002
17	72911	19.90899475811	1.002
17	72921	19.93899475811	1.002
17	73338	19.96899475811	1.002
17	73533	19.99899475811	1.002
17	73550	20.02899475811	1.002
17	73893	20.05899475811	1.002
17	74088	20.08899475811	1.002
17	74179	20.11899475811	1.002
17	74189	20.14899475811	1.002
17	74638	20.17899475811	1.002
17	74766	20.20899475811	1.002
17	74776	20.23899475811	1.002
17	75177	20.26899475811	1.002
17	75372	20.29899475811	1.002
17	75389	20.32899475811	1.002
17	75716	20.35899475811	1.002
17	75911	20.38899475811	1.002
17	76002	20.41899475811	1.002
17	76012	20.44899475811	1.002
17	76450	20.47899475811	1.002
17	76578	20.50899475811	1.002
17	76588	20.53899475811	1.002
17	77005	20.56899475811	1.002
17	77200	20.59899475811	1.002
17	77217	20.62899475811	1.002
17	77560	20.65899475811	1.002
17	77755	20.68899475811	1.002
17	77846	20.71899475811	1.002
17	77856	20.74899475811	1.002
17	78294	20.77899475811	1.002
17	78422	20.80899475811	1.002
17	78432	20.83899475811	1.002
17	78828	20.86899475811	1.002
17	79023	20.89899475811	1.002
17	79040	20.92899475811	1.002
17	79388	20.95899475811	1.002
17	79583	20.98899475811	1.002
17	79674	21.01899475811	1.002
17	79684	21.04899475811	1.002
17	80133	21.07899475811	1.002
17	80261	21.10899475811	1.002
17	80271	21.13899475811	1.002
17	80677	21.16899475811	1.002
17	80872	21.19899475811	1.002
17	80889	21.22899475811	1.002
17	81216	21.25899475811	1.002
17	81411	21.28899475811	1.002
17	81502	21.31899475811	1.002
17	81512	21.34899475811	1.002
17	81939	21.37899475811	1.002
17	82067	21.40899475811	1.002
17	82077	21.43899475811	1.002
17	82467	21.46899475811	1.002
17	82662	21.49899475811	1.002
17	82679	21.52899475811	1.002
17	83022	21.55899475811	1.002
17	83217	21.58899475811	1.002
17	83308	21.61899475811	1.002
17	83318	21.64899475811	1.002
17	83761	21.67899475811	1.002
17	83889	21.70899475811	1.002
17	83899	21.73899475811	1.002
17	84316	21.76899475811	1.002
17	84511	21.79899475811	1.002
17	84528	21.82899475811	1.002
17	84882	21.85899475811	1.002
17	85077	21.88899475811	1.002
17	85168	21.91899475811	1.002
17	85178	21.94899475811	1.002
17	85610	21.97899475811	1.002
17	85738	22.00899475811	1.002
17	85748	22.03899475811	1.002
17	86176	22.06899475811	1.002
17	86371	22.09899475811	1.002
17	86388	22.12899475811	1.002
17	86731	22.15899475811	1.002
17	86926	22.18899475811	1.002
17	87017	22.21899475811	1.002
17	87027	22.24899475811	1.002
17	87476	22.27899475811	1.002
17	87604	22.30899475811	1.002
17	87614	22.33899475811	1.002
17	88042	22.36899475811	1.002
17	88237	22.39899475811	1.002
17	88254	22.42899475811	1.002
17	88597	22.45899475811	1.002
17	88792	22.48899475811	1.002
17	88883	22.51899475811	1.002
17	88893	22.54899475811	1.002
17	89347	22.57899475811	1.002
17	89475	22.60899475811	1.002
17	89485	22.63899475811	1.002
17	89880	22.66899475811	1.002
17	90075	22.69899475811	1.002
17	90092	22.72899475811	1.002
17	90446	22.75899475811	1.002
17	90641	22.78899475811	1.002
17	90732	22.81899475811	1.002
17	90742	22.84899475811	1.002
17	91175	22.87899475811	1.002
17	91303	22.90899475811	1.002
17	91313	22.93899475811	1.002
17	91714	22.96899475811	1.002
17	91909	22.99899475811	1.002
17	91926	23.02899475811	1.002
17	92269	23.05899475811	1.002
17	92464	23.08899475811	1.002
17	92555	23.11899475811	1.002
17	92565	23.14899475811	1.002
17	93008	23.17899475811	1.002
17	93136	23.20899475811	1.002
17	93146	23.23899475811	1.002
17	93574	23.26899475811	1.002
17	93769	23.29899475811	1.002
17	93786	23.32899475811	1.002
17	94140	23.35899475811	1.002
17	94335	23.38899475811	1.002
17	94426	23.41899475811	1.002
17	94436	23.44899475811	1.002
17	94869	23.47899475811	1.002
17	94997	23.50899475811	1.002
17	95007	23.53899475811	1.002
17	95424	23.56899475811	1.002
17	95619	23.59899475811	1.002
17	95636	23.62899475811	1.002
17	95979	23.65899475811	1.002
17	96174	23.68899475811	1.002
17	96265	23.71899475811	1.002
17	96275	23.74899475811	1.002
17	96713	23.77899475811	1.002
17	96841	23.80899475811	1.002
17	96851	23.83899475811	1.002
17	97268	23.86899475811	1.002
17	97463	23.89899475811	1.002
17	97480	23.92899475811	1.002
17	97802	23.95899475811	1.002
17	97997	23.98899475811	1.002
17	98088	24.01899475811	1.002
17	98098	24.04899475811	1.002
17	98547	24.07899475811	1.002
17	98675	24.10899475811	1.002
17	98685	24.13899475811	1.002
17	99091	24.16899475811	1.002
17	99286	24.19899475811	1.002
17	99303	24.22899475811	1.002
17	99635	24.25899475811	1.002
17	99830	24.28899475811	1.002
17	99921	24.31899475811	1.002
17	99931	24.34899475811	1.002
17	100358	24.37899475811	1.002
17	100486	24.40899475811	1.002
17	100496	24.43899475811	1.002
17	100897	24.46899475811	1.002
17	101092	24.49899475811	1.002
17	101109	24.52899475811	1.002
17	101441	24.55899475811	1.002
17	101636	24.58899475811	1.002
17	101727	24.61899475811	1.002
17	101737	24.64899475811	1.002
17	102186	24.67899475811	1.002
17	102314	24.70899475811	1.002
17	102324	24.73899475811	1.002
17	102714	24.76899475811	1.002
17	102909	24.79899475811	1.002
17	102926	24.82899475811	1.002
17	103280	24.85899475811	1.002
17	103475	24.88899475811	1.002
17	103566	24.91899475811	1.002
17	103576	24.94899475811	1.002
17	104019	24.97899475811	1.002
17	104147	25.00899475811	1.002
17	104157	25.03899475811	1.002
17	104569	25.06899475811	1.002
17	104764	25.09899475811	1.002
17	104781	25.12899475811	1.002
17	105119	25.15899475811	1.002
17	105314	25.18899475811	1.002
17	105405	25.21899475811	1.002
17	105415	25.24899475811	1.002
17	105847	25.27899475811	1.002
17	105975	25.30899475811	1.002
17	105985	25.33899475811	1.002
17	106386	25.36899475811	1.002
17	106581	25.39899475811	1.002
17	106598	25.42899475811	1.002
17	106941	25.45899475811	1.002
17	107136	25.48899475811	1.002
17	107227	25.51899475811	1.002
17	107237	25.54899475811	1.002
17	107702	25.57899475811	1.002
17	107830	25.60899475811	1.002
17	107840	25.63899475811	1.002
17	108241	25.66899475811	1.002
17	108436	25.69899475811	1.002
17	108453	25.72899475811	1.002
17	108796	25.75899475811	1.002
17	108991	25.78899475811	1.002
17	109082	25.81899475811	1.002
17	109092	25.84899475811	1.002
17	109530	25.87899475811	1.002
17	109658	25.90899475811	1.002
17	109668	25.93899475811	1.002
17	110080	25.96899475811	1.002
17	110275	25.99899475811	1.002
17	110292	26.02899475811	1.002
17	110630	26.05899475811	1.002
17	110825	26.08899475811	1.002
17	110916	26.11899475811	1.002
17	110926	26.14899475811	1.002
17	111364	26.17899475811	1.002
17	111492	26.20899475811	1.002
17	111502	26.23899475811	1.002
17	111908	26.26899475811	1.002
17	112103	26.29899475811	1.002
17	112120	26.32899475811	1.002
17	112458	26.35899475811	1.002
17	112653	26.38899475811	1.002
17	112744	26.41899475811	1.002
17	112754	26.44899475811	1.002
17	113203	26.47899475811	1.002
17	113331	26.50899475811	1.002
17	113341	26.53899475811	1.002
17	113769	26.56899475811	1.002
17	113964	26.59899475811	1.002
17	113981	26.62899475811	1.002
17	114308	26.65899475811	1.002
17	114503	26.68899475811	1.002
17	114594	26.71899475811	1.002
17	114604	26.74899475811	1.002
17	115042	26.77899475811	1.002
17	115170	26.80899475811	1.002
17	115180	26.83899475811	1.002
17	115581	26.86899475811	1.002
17	115776	26.89899475811	1.002
17	115793	26.92899475811	1.002
17	116131	26.95899475811	1.002
17	116326	26.98899475811	1.002
17	116417	27.01899475811	1.002
17	116427	27.04899475811	1.002
17	116849	27.07899475811	1.002
17	116977	27.10899475811	1.002
17	116987	27.13899475811	1.002
17	117377	27.16899475811	1.002
17	117572	27.19899475811	1.002
17	117589	27.22899475811	1.002
17	117943	27.25899475811	1.002
17	118138	27.28899475811	1.002
17	118229	27.31899475811	1.002
17	118239	27.34899475811	1.002
17	118677	27.37899475811	1.002
17	118805	27.40899475811	1.002
17	118815	27.43899475811	1.002
17	119211	27.46899475811	1.002
17	119406	27.49899475811	1.002
17	119423	27.52899475811	1.002
17	119766	27.55899475811	1.002
17	119961	27.58899475811	1.002
17	120052	27.61899475811	1.002
17	120062	27.64899475811	1.002
17	120516	27.67899475811	1.002
17	120644	27.70899475811	1.002
17	120654	27.73899475811	1.002
17	121055	27.76899475811	1.002
17	121250	27.79899475811	1.002
17	121267	27.82899475811	1.002
17	121626	27.85899475811	1.002
17	121821	27.88899475811	1.002
17	121912	27.91899475811	1.002
17	121922	27.94899475811	1.002
17	122365	27.97899475811	1.002
17	122493	28.00899475811	1.002
17	122503	28.03899475811	1.002
17	122899	28.06899475811	1.002
17	123094	28.09899475811	1.002
17	123111	28.12899475811	1.002
17	123438	28.15899475811	1.002
17	123633	28.18899475811	1.002
17	123724	28.21899475811	1.002
17	123734	28.24899475811	1.002
17	124172	28.27899475811	1.002
17	124300	28.30899475811	1.002
17	124310	28.33899475811	1.002
17	124706	28.36899475811	1.002
17	124901	28.39899475811	1.002
17	124918	28.42899475811	1.002
17	125250	28.45899475811	1.002
17	125445	28.48899475811	1.002
17	125536	28.51899475811	1.002
17	125546	28.54899475811	1.002
17	125984	28.57899475811	1.002
17	126112	28.60899475811	1.002
17	126122	28.63899475811	1.002
17	126539	28.66899475811	1.002
17	126734	28.69899475811	1.002
17	126751	28.72899475811	1.002
17	127099	28.75899475811	1.002
17	127294	28.78899475811	1.002
17	127385	28.81899475811	1.002
17	127395	28.84899475811	1.002
17	127849	28.87899475811	1.002
17	127977	28.90899475811	1.002
17	127987	28.93899475811	1.002
17	128404	28.96899475811	1.002
17	128599	28.99899475811	1.002
17	128616	29.02899475811	1.002
17	128954	29.05899475811	1.002
17	129149	29.08899475811	1.002
17	129240	29.11899475811	1.002
17	129250	29.14899475811	1.002
17	129688	29.17899475811	1.002
17	129816	29.20899475811	1.002
17	129826	29.23899475811	1.002
17	130227	29.26899475811	1.002
17	130422	29.29899475811	1.002
17	130439	29.32899475811	1.002
17	130782	29.35899475811	1.002
17	130977	29.38899475811	1.002
17	131068	29.41899475811	1.002
17	131078	29.44899475811	1.002
17	131516	29.47899475811	1.002
17	131644	29.50899475811	1.002
17	131654	29.53899475811	1.002
17	132050	29.56899475811	1.002
17	132245	29.59899475811	1.002
17	132262	29.62899475811	1.002
17	132594	29.65899475811	1.002
17	132789	29.68899475811	1.002
17	132880	29.71899475811	1.002
17	132890	29.74899475811	1.002
17	133344	29.77899475811	1.002
17	133472	29.80899475811	1.002
17	133482	29.83899475811	1.002
17	133877	29.86899475811	1.002
17	134072	29.89899475811	1.002
17	134089	29.92899475811	1.002
17	134432	29.95899475811	1.002
17	134627	29.98899475811	1.002
17	134718	30.01899475811	1.002
17	134728	30.04899475811	1.002
17	135182	30.07899475811	1.002
17	135310	30.10899475811	1.002
17	135320	30.13899475811	1.002
17	135748	30.16899475811	1.002
17	135943	30.19899475811	1.002
17	135960	30.22899475811	1.002
17	136303	30.25899475811	1.002
17	136498	30.28899475811	1.002
17	136589	30.31899475811	1.002
17	136599	30.34899475811	1.002
17	137064	30.37899475811	1.002
17	137192	30.40899475811	1.002
17	137202	30.43899475811	1.002
17	137614	30.46899475811	1.002
17	137809	30.49899475811	1.002
17	137826	30.52899475811	1.002
17	138164	30.55899475811	1.002
17	138359	30.58899475811	1.002
17	138450	30.61899475811	1.002
17	138460	30.64899475811	1.002
17	138925	30.67899475811	1.002
17	139053	30.70899475811	1.002
17	139063	30.73899475811	1.002
17	139464	30.76899475811	1.002
17	139659	30.79899475811	1.002
17	139676	30.82899475811	1.002
17	140014	30.85899475811	1.002
17	140209	30.88899475811	1.002
17	140300	30.91899475811	1.002
17	140310	30.94899475811	1.002
17	140748	30.97899475811	1.002
17	140876	31.00899475811	1.002
17	140886	31.03899475811	1.002
17	141287	31.06899475811	1.002
17	141482	31.09899475811	1.002
17	141499	31.12899475811	1.002
17	141826	31.15899475811	1.002
17	142021	31.18899475811	1.002
17	142112	31.21899475811	1.002
17	142122	31.24899475811	1.002
17	142576	31.27899475811	1.002
17	142704	31.30899475811	1.002
17	142714	31.33899475811	1.002
17	143126	31.36899475811	1.002
17	143321	31.39899475811	1.002
17	143338	31.42899475811	1.002
17	143692	31.45899475811	1.002
17	143887	31.48899475811	1.002
17	143978	31.51899475811	1.002
17	143988	31.54899475811	1.002
17	144437	31.57899475811	1.002
17	144565	31.60899475811	1.002
17	144575	31.63899475811	1.002
17	144976	31.66899475811	1.002
17	145171	31.69899475811	1.002
17	145188	31.72899475811	1.002
17	145531	31.75899475811	1.002
17	145726	31.78899475811	1.002
17	145817	31.81899475811	1.002
17	145827	31.84899475811	1.002
17	146276	31.87899475811	1.002
17	146404	31.90899475811	1.002
17	146414	31.93899475811	1.002
17	146815	31.96899475811	1.002
17	147010	31.99899475811	1.002
17	147027	32.02899475811	1.002
17	147375	32.05899475811	1.002
17	147570	32.08899475811	1.002
17	147661	32.11899475811	1.002
17	147671	32.14899475811	1.002
17	148125	32.17899475811	1.002
17	148253	32.20899475811	1.002
17	148263	32.23899475811	1.002
17	148664	32.26899475811	1.002
17	148859	32.29899475811	1.002
17	148876	32.32899475811	1.002
17	149208	32.35899475811	1.002
17	149403	32.38899475811	1.002
17	149494	32.41899475811	1.002
17	149504	32.44899475811	1.002
17	149958	32.47899475811	1.002
17	150086	32.50899475811	1.002
17	150096	32.53899475811	1.002
17	150497	32.56899475811	1.002
17	150692	32.59899475811	1.002
17	150709	32.62899475811	1.002
17	151052	32.65899475811	1.002
17	151247	32.68899475811	1.002
17	151338	32.71899475811	1.002
17	151348	32.74899475811	1.002
17	151786	32.77899475811	1.002
17	151914	32.80899475811	1.002
17	151924	32.83899475811	1.002
17	152336	32.86899475811	1.002
17	152531	32.89899475811	1.002
17	152548	32.92899475811	1.002
17	152902	32.95899475811	1.002
17	153097	32.98899475811	1.002
17	153188	33.01899475811	1.002
17	153198	33.04899475811	1.002
17	153636	33.07899475811	1.002
17	153764	33.10899475811	1.002
17	153774	33.13899475811	1.002
17	154175	33.16899475811	1.002
17	154370	33.19899475811	1.002
17	154387	33.22899475811	1.002
17	154719	33.25899475811	1.002
17	154914	33.28899475811	1.002
17	155005	33.31899475811	1.002
17	155015	33.34899475811	1.002
17	155453	33.37899475811	1.002
17	155581	33.40899475811	1.002
17	155591	33.43899475811	1.002
17	155986	33.46899475811	1.002
17	156181	33.49899475811	1.002
17	156198	33.52899475811	1.002
17	156541	33.55899475811	1.002
17	156736	33.58899475811	1.002
17	156827	33.61899475811	1.002
17	156837	33.64899475811	1.002
17	157264	33.67899475811	1.002
17	157392	33.70899475811	1.002
17	157402	33.73899475811	1.002
17	157808	33.76899475811	1.002
17	158003	33.79899475811	1.002
17	158020	33.82899475811	1.002
17	158352	33.85899475811	1.002
17	158547	33.88899475811	1.002
17	158638	33.91899475811	1.002
17	158648	33.94899475811	1.002
17	159081	33.97899475811	1.002
17	159209	34.00899475811	1.002
17	159219	34.03899475811	1.002
17	159609	34.06899475811	1.002
17	159804	34.09899475811	1.002
17	159821	34.12899475811	1.002
17	160159	34.15899475811	1.002
17	160354	34.18899475811	1.002
17	160445	34.21899475811	1.002
17	160455	34.24899475811	1.002
17	160893	34.27899475811	1.002
17	161021	34.30899475811	1.002
17	161031	34.33899475811	1.002
17	161432	34.36899475811	1.002
17	161627	34.39899475811	1.002
17	161644	34.42899475811	1.002
17	161992	34.45899475811	1.002
17	162187	34.48899475811	1.002
17	162278	34.51899475811	1.002
17	162288	34.54899475811	1.002
17	162720	34.57899475811	1.002
17	162848	34.60899475811	1.002
17	162858	34.63899475811	1.002
17	163259	34.66899475811	1.002
17	163454	34.69899475811	1.002
17	163471	34.72899475811	1.002
17	163798	34.75899475811	1.002
17	163993	34.78899475811	1.002
17	164084	34.81899475811	1.002
17	164094	34.84899475811	1.002
17	164548	34.87899475811	1.002
17	164676	34.90899475811	1.002
17	164686	34.93899475811	1.002
17	165103	34.96899475811	1.002
17	165298	34.99899475811	1.002
17	165315	35.02899475811	1.002
17	165658	35.05899475811	1.002
17	165853	35.08899475811	1.002
17	165944	35.11899475811	1.002
17	165954	35.14899475811	1.002
17	166392	35.17899475811	1.002
17	166520	35.20899475811	1.002
17	166530	35.23899475811	1.002
17	166931	35.26899475811	1.002
17	167126	35.29899475811	1.002
17	167143	35.32899475811	1.002
17	167475	35.35899475811	1.002
17	167670	35.38899475811	1.002
17	167761	35.41899475811	1.002
17	167771	35.44899475811	1.002
17	168220	35.47899475811	1.002
17	168348	35.50899475811	1.002
17	168358	35.53899475811	1.002
17	168775	35.56899475811	1.002
17	168970	35.59899475811	1.002
17	168987	35.62899475811	1.002
17	169319	35.65899475811	1.002
17	169514	35.68899475811	1.002
17	169605	35.71899475811	1.002
17	169615	35.74899475811	1.002
17	170042	35.77899475811	1.002
17	170170	35.80899475811	1.002
17	170180	35.83899475811	1.002
17	170597	35.86899475811	1.002
17	170792	35.89899475811	1.002
17	170809	35.92899475811	1.002
17	171125	35.95899475811	1.002
17	171320	35.98899475811	1.002
17	171411	36.01899475811	1.002
17	171421	36.04899475811	1.002
17	171848	36.07899475811	1.002
17	171976	36.10899475811	1.002
17	171986	36.13899475811	1.002
17	172387	36.16899475811	1.002
17	172582	36.19899475811	1.002
17	172599	36.22899475811	1.002
17	172926	36.25899475811	1.002
17	173121	36.28899475811	1.002
17	173212	36.31899475811	1.002
17	173222	36.34899475811	1.002
17	173649	36.37899475811	1.002
17	173777	36.40899475811	1.002
17	173787	36.43899475811	1.002
17	174193	36.46899475811	1.002
17	174388	36.49899475811	1.002
17	174405	36.52899475811	1.002
17	174726	36.55899475811	1.002
17	174921	36.58899475811	1.002
17	175012	36.61899475811	1.002
17	175022	36.64899475811	1.002
17	175455	36.67899475811	1.002
17	175583	36.70899475811	1.002
17	175593	36.73899475811	1.002
17	176010	36.76899475811	1.002
17	176205	36.79899475811	1.002
17	176222	36.82899475811	1.002
17	176560	36.85899475811	1.002
17	176755	36.88899475811	1.002
17	176846	36.91899475811	1.002
17	176856	36.94899475811	1.002
17	177283	36.97899475811	1.002
17	177411	37.00899475811	1.002
17	177421	37.03899475811	1.002
17	177827	37.06899475811	1.002
17	178022	37.09899475811	1.002
17	178039	37.12899475811	1.002
17	178355	37.15899475811	1.002
17	178550	37.18899475811	1.002
17	178641	37.21899475811	1.002
17	178651	37.24899475811	1.002
17	179100	37.27899475811	1.002
17	179228	37.30899475811	1.002
17	179238	37.33899475811	1.002
17	179628	37.36899475811	1.002
17	179823	37.39899475811	1.002
17	179840	37.42899475811	1.002
17	180161	37.45899475811	1.002
17	180356	37.48899475811	1.002
17	180447	37.51899475811	1.002
17	180457	37.54899475811	1.002
17	180911	37.57899475811	1.002
17	181039	37.60899475811	1.002
17	181049	37.63899475811	1.002
17	181450	37.66899475811	1.002
17	181645	37.69899475811	1.002
17	181662	37.72899475811	1.002
17	181989	37.75899475811	1.002
17	182184	37.78899475811	1.002
17	182275	37.81899475811	1.002
17	182285	37.84899475811	1.002
17	182739	37.87899475811	1.002
17	182867	37.90899475811	1.002
17	182877	37.93899475811	1.002
17	183283	37.96899475811	1.002
17	183478	37.99899475811	1.002
17	183495	38.02899475811	1.002
17	183838	38.05899475811	1.002
17	184033	38.08899475811	1.002
17	184124	38.11899475811	1.002
17	184134	38.14899475811	1.002
17	184588	38.17899475811	1.002
17	184716	38.20899475811	1.002
17	184726	38.23899475811	1.002
17	185132	38.26899475811	1.002
17	185327	38.29899475811	1.002
17	185344	38.32899475811	1.002
17	185687	38.35899475811	1.002
17	185882	38.38899475811	1.002
17	185973	38.41899475811	1.002
17	185983	38.44899475811	1.002
17	186432	38.47899475811	1.002
17	186560	38.50899475811	1.002
17	186570	38.53899475811	1.002
17	186987	38.56899475811	1.002
17	187182	38.59899475811	1.002
17	187199	38.62899475811	1.002
17	187526	38.65899475811	1.002
17	187721	38.68899475811	1.002
17	187812	38.71899475811	1.002
17	187822	38.74899475811	1.002
17	188265	38.77899475811	1.002
17	188393	38.80899475811	1.002
17	188403	38.83899475811	1.002
17	188820	38.86899475811	1.002
17	189015	38.89899475811	1.002
17	189032	38.92899475811	1.002
17	189354	38.95899475811	1.002
17	189549	38.98899475811	1.002
17	189640	39.01899475811	1.002
17	189650	39.04899475811	1.002
17	190088	39.07899475811	1.002
17	190216	39.10899475811	1.002
17	190226	39.13899475811	1.002
17	190627	39.16899475811	1.002
17	190822	39.19899475811	1.002
17	190839	39.22899475811	1.002
17	191166	39.25899475811	1.002
17	191361	39.28899475811	1.002
17	191452	39.31899475811	1.002
17	191462	39.34899475811	1.002
17	191916	39.37899475811	1.002
17	192044	39.40899475811	1.002
17	192054	39.43899475811	1.002
17	192450	39.46899475811	1.002
17	192645	39.49899475811	1.002
17	192662	39.52899475811	1.002
17	193000	39.55899475811	1.002
17	193195	39.58899475811	1.002
17	193286	39.61899475811	1.002
17	193296	39.64899475811	1.002
17	193729	39.67899475811	1.002
17	193857	39.70899475811	1.002
17	193867	39.73899475811	1.002
17	194251	39.76899475811	1.002
17	194446	39.79899475811	1.002
17	194463	39.82899475811	1.002
17	194784	39.85899475811	1.002
17	194979	39.88899475811	1.002
17	195070	39.91899475811	1.002
17	195080	39.94899475811	1.002
17	195534	39.97899475811	1.002
17	195662	40.00899475811	1.002
17	195672	40.03899475811	1.002
17	196094	40.06899475811	1.002
17	196289	40.09899475811	1.002
17	196306	40.12899475811	1.002
17	196649	40.15899475811	1.002
17	196844	40.18899475811	1.002
17	196935	40.21899475811	1.002
17	196945	40.24899475811	1.002
17	197415	40.27899475811	1.002
17	197543	40.30899475811	1.002
17	197553	40.33899475811	1.002
17	197965	40.36899475811	1.002
17	198160	40.39899475811	1.002
17	198177	40.42899475811	1.002
17	198520	40.45899475811	1.002
17	198715	40.48899475811	1.002
17	198806	40.51899475811	1.002
17	198816	40.54899475811	1.002
17	199275	40.57899475811	1.002
17	199403	40.60899475811	1.002
17	199413	40.63899475811	1.002
17	199814	40.66899475811	1.002
17	200009	40.69899475811	1.002
17	200026	40.72899475811	1.002
17	200364	40.75899475811	1.002
17	200559	40.78899475811	1.002
17	200650	40.81899475811	1.002
17	200660	40.84899475811	1.002
17	201109	40.87899475811	1.002
17	201237	40.90899475811	1.002
17	201247	40.93899475811	1.002
17	201648	40.96899475811	1.002
17	201843	40.99899475811	1.002
17	201860	41.02899475811	1.002
17	202182	41.05899475811	1.002
17	202377	41.08899475811	1.002
17	202468	41.11899475811	1.002
17	202478	41.14899475811	1.002
17	202916	41.17899475811	1.002
17	203044	41.20899475811	1.002
17	203054	41.23899475811	1.002
17	203460	41.26899475811	1.002
17	203655	41.29899475811	1.002
17	203672	41.32899475811	1.002
17	204010	41.35899475811	1.002
17	204205	41.38899475811	1.002
17	204296	41.41899475811	1.002
17	204306	41.44899475811	1.002
17	204744	41.47899475811	1.002
17	204872	41.50899475811	1.002
17	204882	41.53899475811	1.002
17	205294	41.56899475811	1.002
17	205489	41.59899475811	1.002
17	205506	41.62899475811	1.002
17	205849	41.65899475811	1.002
17	206044	41.68899475811	1.002
17	206135	41.71899475811	1.002
17	206145	41.74899475811	1.002
17	206572	41.77899475811	1.002
17	206700	41.80899475811	1.002
17	206710	41.83899475811	1.002
17	207122	41.86899475811	1.002
17	207317	41.89899475811	1.002
17	207334	41.92899475811	1.002
17	207655	41.95899475811	1.002
17	207850	41.98899475811	1.002
17	207941	42.01899475811	1.002
17	207951	42.04899475811	1.002
17	208400	42.07899475811	1.002
17	208528	42.10899475811	1.002
17	208538	42.13899475811	1.002
17	208934	42.16899475811	1.002
17	209129	42.19899475811	1.002
17	209146	42.22899475811	1.002
17	209489	42.25899475811	1.002
17	209684	42.28899475811	1.002
17	209775	42.31899475811	1.002
17	209785	42.34899475811	1.002
17	210223	42.37899475811	1.002
17	210351	42.40899475811	1.002
17	210361	42.43899475811	1.002
17	210778	42.46899475811	1.002
17	210973	42.49899475811	1.002
17	210990	42.52899475811	1.002
17	211360	42.55899475811	1.002
17	211555	42.58899475811	1.002
17	211646	42.61899475811	1.002
17	211656	42.64899475811	1.002
17	212099	42.67899475811	1.002
17	212227	42.70899475811	1.002
17	212237	42.73899475811	1.002
17	212649	42.76899475811	1.002
17	212844	42.79899475811	1.002
17	212861	42.82899475811	1.002
17	213204	42.85899475811	1.002
17	213399	42.88899475811	1.002
17	213490	42.91899475811	1.002
17	213500	42.94899475811	1.002
17	213927	42.97899475811	1.002
17	214055	43.00899475811	1.002
17	214065	43.03899475811	1.002
17	214471	43.06899475811	1.002
17	214666	43.09899475811	1.002
17	214683	43.12899475811	1.002
17	215037	43.15899475811	1.002
17	215232	43.18899475811	1.002
17	215323	43.21899475811	1.002
17	215333	43.24899475811	1.002
17	215766	43.27899475811	1.002
17	215894	43.30899475811	1.002
17	215904	43.33899475811	1.002
17	216305	43.36899475811	1.002
17	216500	43.39899475811	1.002
17	216517	43.42899475811	1.002
17	216849	43.45899475811	1.002
17	217044	43.48899475811	1.002
17	217135	43.51899475811	1.002
17	217145	43.54899475811	1.002
17	217572	43.57899475811	1.002
17	217700	43.60899475811	1.002
17	217710	43.63899475811	1.002
17	218122	43.66899475811	1.002
17	218317	43.69899475811	1.002
17	218334	43.72899475811	1.002
17	218677	43.75899475811	1.002
17	218872	43.78899475811	1.002
17	218963	43.81899475811	1.002
17	218973	43.84899475811	1.002
17	219422	43.87899475811	1.002
17	219550	43.90899475811	1.002
17	219560	43.93899475811	1.002
17	219972	43.96899475811	1.002
17	220167	43.99899475811	1.002
17	220184	44.02899475811	1.002
17	220527	44.05899475811	1.002
17	220722	44.08899475811	1.002
17	220813	44.11899475811	1.002
17	220823	44.14899475811	1.002
17	221244	44.17899475811	1.002
17	221372	44.20899475811	1.002
17	221382	44.23899475811	1.002
17	221772	44.26899475811	1.002
17	221967	44.29899475811	1.002
17	221984	44.32899475811	1.002
17	222311	44.35899475811	1.002
17	222506	44.38899475811	1.002
17	222597	44.41899475811	1.002
17	222607	44.44899475811	1.002
17	223056	44.47899475811	1.002
17	223184	44.50899475811	1.002
17	223194	44.53899475811	1.002
17	223584	44.56899475811	1.002
17	223779	44.59899475811	1.002
17	223796	44.62899475811	1.002
17	224128	44.65899475811	1.002
17	224323	44.68899475811	1.002
17	224414	44.71899475811	1.002
17	224424	44.74899475811	1.002
17	224873	44.77899475811	1.002
17	225001	44.80899475811	1.002
17	225011	44.83899475811	1.002
17	225412	44.86899475811	1.002
17	225607	44.89899475811	1.002
17	225624	44.92899475811	1.002
17	225962	44.95899475811	1.002
17	226157	44.98899475811	1.002
17	226248	45.01899475811	1.002
17	226258	45.04899475811	1.002
17	226707	45.07899475811	1.002
17	226835	45.10899475811	1.002
17	226845	45.13899475811	1.002
17	227241	45.16899475811	1.002
17	227436	45.19899475811	1.002
17	227453	45.22899475811	1.002
17	227807	45.25899475811	1.002
17	228002	45.28899475811	1.002
17	228093	45.31899475811	1.002
17	228103	45.34899475811	1.002
17	228546	45.37899475811	1.002
17	228674	45.40899475811	1.002
17	228684	45.43899475811	1.002
17	229101	45.46899475811	1.002
17	229296	45.49899475811	1.002
17	229313	45.52899475811	1.002
17	229672	45.55899475811	1.002
17	229867	45.58899475811	1.002
17	229958	45.61899475811	1.002
17	229968	45.64899475811	1.002
17	230406	45.67899475811	1.002
17	230534	45.70899475811	1.002
17	230544	45.73899475811	1.002
17	230950	45.76899475811	1.002
17	231145	45.79899475811	1.002
17	231162	45.82899475811	1.002
17	231521	45.85899475811	1.002
17	231716	45.88899475811	1.002
17	231807	45.91899475811	1.002
17	231817	45.94899475811	1.002
17	232271	45.97899475811	1.002
17	232399	46.00899475811	1.002
17	232409	46.03899475811	1.002
17	232815	46.06899475811	1.002
17	233010	46.09899475811	1.002
17	233027	46.12899475811	1.002
17	233354	46.15899475811	1.002
17	233549	46.18899475811	1.002
17	233640	46.21899475811	1.002
17	233650	46.24899475811	1.002
17	234093	46.27899475811	1.002
17	234221	46.30899475811	1.002
17	234231	46.33899475811	1.002
17	234637	46.36899475811	1.002
17	234832	46.39899475811	1.002
17	234849	46.42899475811	1.002
17	235192	46.45899475811	1.002
17	235387	46.48899475811	1.002
17	235478	46.51899475811	1.002
17	235488	46.54899475811	1.002
17	235921	46.57899475811	1.002
17	236049	46.60899475811	1.002
17	236059	46.63899475811	1.002
17	236454	46.66899475811	1.002
17	236649	46.69899475811	1.002
17	236666	46.72899475811	1.002
17	236998	46.75899475811	1.002
17	237193	46.78899475811	1.002
17	237284	46.81899475811	1.002
17	237294	46.84899475811	1.002
17	237732	46.87899475811	1.002
17	237860	46.90899475811	1.002
17	237870	46.93899475811	1.002
17	238276	46.96899475811	1.002
17	238471	46.99899475811	1.002
17	238488	47.02899475811	1.002
17	238826	47.05899475811	1.002
17	239021	47.08899475811	1.002
17	239112	47.11899475811	1.002
17	239122	47.14899475811	1.002
17	239560	47.17899475811	1.002
17	239688	47.20899475811	1.002
17	239698	47.23899475811	1.002
17	240110	47.26899475811	1.002
17	240305	47.29899475811	1.002
17	240322	47.32899475811	1.002
17	240670	47.35899475811	1.002
17	240865	47.38899475811	1.002
17	240956	47.41899475811	1.002
17	240966	47.44899475811	1.002
17	241420	47.47899475811	1.002
17	241548	47.50899475811	1.002
17	241558	47.53899475811	1.002
17	241975	47.56899475811	1.002
17	242170	47.59899475811	1.002
17	242187	47.62899475811	1.002
17	242525	47.65899475811	1.002
17	242720	47.68899475811	1.002
17	242811	47.71899475811	1.002
17	242821	47.74899475811	1.002
17	243264	47.77899475811	1.002
17	243392	47.80899475811	1.002
17	243402	47.83899475811	1.002
17	243814	47.86899475811	1.002
17	244009	47.89899475811	1.002
17	244026	47.92899475811	1.002
17	244369	47.95899475811	1.002
17	244564	47.98899475811	1.002
17	244655	48.01899475811	1.002
17	244665	48.04899475811	1.002
17	245103	48.07899475811	1.002
17	245231	48.10899475811	1.002
17	245241	48.13899475811	1.002
17	245637	48.16899475811	1.002
17	245832	48.19899475811	1.002
17	245849	48.22899475811	1.002
17	246181	48.25899475811	1.002
17	246376	48.28899475811	1.002
17	246467	48.31899475811	1.002
17	246477	48.34899475811	1.002
17	246920	48.37899475811	1.002
17	247048	48.40899475811	1.002
17	247058	48.43899475811	1.002
17	247454	48.46899475811	1.002
17	247649	48.49899475811	1.002
17	247666	48.52899475811	1.002
17	247993	48.55899475811	1.002
17	248188	48.58899475811	1.002
17	248279	48.61899475811	1.002
17	248289	48.64899475811	1.002
17	248727	48.67899475811	1.002
17	248855	48.70899475811	1.002
17	248865	48.73899475811	1.002
17	249282	48.76899475811	1.002
17	249477	48.79899475811	1.002
17	249494	48.82899475811	1.002
17	249837	48.85899475811	1.002
17	250032	48.88899475811	1.002
17	250123	48.91899475811	1.002
17	250133	48.94899475811	1.002
17	250571	48.97899475811	1.002
17	250699	49.00899475811	1.002
17	250709	49.03899475811	1.002
17	251105	49.06899475811	1.002
17	251300	49.09899475811	1.002
17	251317	49.12899475811	1.002
17	251649	49.15899475811	1.002
17	251844	49.18899475811	1.002
17	251935	49.21899475811	1.002
17	251945	49.24899475811	1.002
17	252383	49.27899475811	1.002
17	252511	49.30899475811	1.002
17	252521	49.33899475811	1.002
17	252933	49.36899475811	1.002
17	253128	49.39899475811	1.002
17	253145	49.42899475811	1.002
17	253483	49.45899475811	1.002
17	253678	49.48899475811	1.002
17	253769	49.51899475811	1.002
17	253779	49.54899475811	1.002
17	254212	49.57899475811	1.002
17	254340	49.60899475811	1.002
17	254350	49.63899475811	1.002
17	254767	49.66899475811	1.002
17	254962	49.69899475811	1.002
17	254979	49.72899475811	1.002
17	255322	49.75899475811	1.002
17	255517	49.78899475811	1.002
17	255608	49.81899475811	1.002
17	255618	49.84899475811	1.002
17	256072	49.87899475811	1.002
17	256200	49.90899475811	1.002
17	256210	49.93899475811	1.002
17	256611	49.96899475811	1.002
17	256806	49.99899475811	1.002
17	256823	50.02899475811	1.002
17	257182	50.05899475811	1.002
17	257377	50.08899475811	1.002
17	257468	50.11899475811	1.002
17	257478	50.14899475811	1.002
17	257916	50.17899475811	1.002
17	258044	50.20899475811	1.002
17	258054	50.23899475811	1.002
17	258471	50.26899475811	1.002
17	258666	50.29899475811	1.002
17	258683	50.32899475811	1.002
17	259010	50.35899475811	1.002
17	259205	50.38899475811	1.002
17	259296	50.41899475811	1.002
17	259306	50.44899475811	1.002
17	259749	50.47899475811	1.002
17	259877	50.50899475811	1.002
17	259887	50.53899475811	1.002
17	260304	50.56899475811	1.002
17	260499	50.59899475811	1.002
17	260516	50.62899475811	1.002
17	260870	50.65899475811	1.002
17	261065	50.68899475811	1.002
17	261156	50.71899475811	1.002
17	261166	50.74899475811	1.002
17	261593	50.77899475811	1.002
17	261721	50.80899475811	1.002
17	261731	50.83899475811	1.002
17	262121	50.86899475811	1.002
17	262316	50.89899475811	1.002
17	262333	50.92899475811	1.002
17	262660	50.95899475811	1.002
17	262855	50.98899475811	1.002
17	262946	51.01899475811	1.002
17	262956	51.04899475811	1.002
17	263383	51.07899475811	1.002
17	263511	51.10899475811	1.002
17	263521	51.13899475811	1.002
17	263900	51.16899475811	1.002
17	264095	51.19899475811	1.002
17	264112	51.22899475811	1.002
17	264444	51.25899475811	1.002
17	264639	51.28899475811	1.002
17	264730	51.31899475811	1.002
17	264740	51.34899475811	1.002
17	265178	51.37899475811	1.002
17	265306	51.40899475811	1.002
17	265316	51.43899475811	1.002
17	265717	51.46899475811	1.002
17	265912	51.49899475811	1.002
17	265929	51.52899475811	1.002
17	266256	51.55899475811	1.002
17	266451	51.58899475811	1.002
17	266542	51.61899475811	1.002
17	266552	51.64899475811	1.002
17	266990	51.67899475811	1.002
17	267118	51.70899475811	1.002
17	267128	51.73899475811	1.002
17	267540	51.76899475811	1.002
17	267735	51.79899475811	1.002
17	267752	51.82899475811	1.002
17	268068	51.85899475811	1.002
17	268263	51.88899475811	1.002
17	268354	51.91899475811	1.002
17	268364	51.94899475811	1.002
17	268818	51.97899475811	1.002
17	268946	52.00899475811	1.002
17	268956	52.03899475811	1.002
17	269389	52.06899475811	1.002
17	269584	52.09899475811	1.002
17	269601	52.12899475811	1.002
17	269944	52.15899475811	1.002
17	270139	52.18899475811	1.002
17	270230	52.21899475811	1.002
17	270240	52.24899475811	1.002
17	270683	52.27899475811	1.002
17	270811	52.30899475811	1.002
17	270821	52.33899475811	1.002
17	271211	52.36899475811	1.002
17	271406	52.39899475811	1.002
17	271423	52.42899475811	1.002
17	271766	52.45899475811	1.002
17	271961	52.48899475811	1.002
17	272052	52.51899475811	1.002
17	272062	52.54899475811	1.002
17	272516	52.57899475811	1.002
17	272644	52.60899475811	1.002
17	272654	52.63899475811	1.002
17	273082	52.66899475811	1.002
17	273277	52.69899475811	1.002
17	273294	52.72899475811	1.002
17	273621	52.75899475811	1.002
17	273816	52.78899475811	1.002
17	273907	52.81899475811	1.002
17	273917	52.84899475811	1.002
17	274355	52.87899475811	1.002
17	274483	52.90899475811	1.002
17	274493	52.93899475811	1.002
17	274910	52.96899475811	1.002
17	275105	52.99899475811	1.002
17	275122	53.02899475811	1.002
17	275438	53.05899475811	1.002
17	275633	53.08899475811	1.002
17	275724	53.11899475811	1.002
17	275734	53.14899475811	1.002
17	276183	53.17899475811	1.002
17	276311	53.20899475811	1.002
17	276321	53.23899475811	1.002
17	276716	53.26899475811	1.002
17	276911	53.29899475811	1.002
17	276928	53.32899475811	1.002
17	277266	53.35899475811	1.002
17	277461	53.38899475811	1.002
17	277552	53.41899475811	1.002
17	277562	53.44899475811	1.002
17	278000	53.47899475811	1.002
17	278128	53.50899475811	1.002
17	278138	53.53899475811	1.002
17	278534	53.56899475811	1.002
17	278729	53.59899475811	1.002
17	278746	53.62899475811	1.002
17	279100	53.65899475811	1.002
17	279295	53.68899475811	1.002
17	279386	53.71899475811	1.002
17	279396	53.74899475811	1.002
17	279823	53.77899475811	1.002
17	279951	53.80899475811	1.002
17	279961	53.83899475811	1.002
17	280378	53.86899475811	1.002
17	280573	53.89899475811	1.002
17	280590	53.92899475811	1.002
17	280949	53.95899475811	1.002
17	281144	53.98899475811	1.002
17	281235	54.01899475811	1.002
17	281245	54.04899475811	1.002
17	281699	54.07899475811	1.002
17	281827	54.10899475811	1.002
17	281837	54.13899475811	1.002
17	282254	54.16899475811	1.002
17	282449	54.19899475811	1.002
17	282466	54.22899475811	1.002
17	282809	54.25899475811	1.002
17	283004	54.28899475811	1.002
17	283095	54.31899475811	1.002
17	283105	54.34899475811	1.002
17	283559	54.37899475811	1.002
17	283687	54.40899475811	1.002
17	283697	54.43899475811	1.002
17	284109	54.46899475811	1.002
17	284304	54.49899475811	1.002
17	284321	54.52899475811	1.002
17	284664	54.55899475811	1.002
17	284859	54.58899475811	1.002
17	284950	54.61899475811	1.002
17	284960	54.64899475811	1.002
17	285403	54.67899475811	1.002
17	285531	54.70899475811	1.002
17	285541	54.73899475811	1.002
17	285969	54.76899475811	1.002
17	286164	54.79899475811	1.002
17	286181	54.82899475811	1.002
17	286513	54.85899475811	1.002
17	286708	54.88899475811	1.002
17	286799	54.91899475811	1.002
17	286809	54.94899475811	1.002
17	287236	54.97899475811	1.002
17	287364	55.00899475811	1.002
17	287374	55.03899475811	1.002
17	287791	55.06899475811	1.002
17	287986	55.09899475811	1.002
17	288003	55.12899475811	1.002
17	288357	55.15899475811	1.002
17	288552	55.18899475811	1.002
17	288643	55.21899475811	1.002
17	288653	55.24899475811	1.002
17	289107	55.27899475811	1.002
17	289235	55.30899475811	1.002
17	289245	55.33899475811	1.002
17	289662	55.36899475811	1.002
17	289857	55.39899475811	1.002
17	289874	55.42899475811	1.002
17	290217	55.45899475811	1.002
17	290412	55.48899475811	1.002
17	290503	55.51899475811	1.002
17	290513	55.54899475811	1.002
17	290956	55.57899475811	1.002
17	291084	55.60899475811	1.002
17	291094	55.63899475811	1.002
17	291500	55.66899475811	1.002
17	291695	55.69899475811	1.002
17	291712	55.72899475811	1.002
17	292050	55.75899475811	1.002
17	292245	55.78899475811	1.002
17	292336	55.81899475811	1.002
17	292346	55.84899475811	1.002
17	292784	55.87899475811	1.002
17	292912	55.90899475811	1.002
17	292922	55.93899475811	1.002
17	293301	55.96899475811	1.002
17	293496	55.99899475811	1.002
17	293513	56.02899475811	1.002
17	293851	56.05899475811	1.002
17	294046	56.08899475811	1.002
17	294137	56.11899475811	1.002
17	294147	56.14899475811	1.002
17	294574	56.17899475811	1.002
17	294702	56.20899475811	1.002
17	294712	56.23899475811	1.002
17	295124	56.26899475811	1.002
17	295319	56.29899475811	1.002
17	295336	56.32899475811	1.002
17	295674	56.35899475811	1.002
17	295869	56.38899475811	1.002
17	295960	56.41899475811	1.002
17	295970	56.44899475811	1.002
17	296408	56.47899475811	1.002
17	296536	56.50899475811	1.002
17	296546	56.53899475811	1.002
17	296963	56.56899475811	1.002
17	297158	56.59899475811	1.002
17	297175	56.62899475811	1.002
17	297518	56.65899475811	1.002
17	297713	56.68899475811	1.002
17	297804	56.71899475811	1.002
17	297814	56.74899475811	1.002
17	298279	56.77899475811	1.002
17	298407	56.80899475811	1.002
17	298417	56.83899475811	1.002
17	298818	56.86899475811	1.002
17	299013	56.89899475811	1.002
17	299030	56.92899475811	1.002
17	299373	56.95899475811	1.002
17	299568	56.98899475811	1.002
17	299659	57.01899475811	1.002
17	299669	57.04899475811	1.002
17	300128	57.07899475811	1.002
17	300256	57.10899475811	1.002
17	300266	57.13899475811	1.002
17	300667	57.16899475811	1.002
17	300862	57.19899475811	1.002
17	300879	57.22899475811	1.002
17	301206	57.25899475811	1.002
17	301401	57.28899475811	1.002
17	301492	57.31899475811	1.002
17	301502	57.34899475811	1.002
17	301940	57.37899475811	1.002
17	302068	57.40899475811	1.002
17	302078	57.43899475811	1.002
17	302479	57.46899475811	1.002
17	302674	57.49899475811	1.002
17	302691	57.52899475811	1.002
17	303045	57.55899475811	1.002
17	303240	57.58899475811	1.002
17	303331	57.61899475811	1.002
17	303341	57.64899475811	1.002
17	303779	57.67899475811	1.002
17	303907	57.70899475811	1.002
17	303917	57.73899475811	1.002
17	304345	57.76899475811	1.002
17	304540	57.79899475811	1.002
17	304557	57.82899475811	1.002
17	304884	57.85899475811	1.002
17	305079	57.88899475811	1.002
17	305170	57.91899475811	1.002
17	305180	57.94899475811	1.002
17	305623	57.97899475811	1.002
17	305751	58.00899475811	1.002
17	305761	58.03899475811	1.002
17	306162	58.06899475811	1.002
17	306357	58.09899475811	1.002
17	306374	58.12899475811	1.002
17	306728	58.15899475811	1.002
17	306923	58.18899475811	1.002
17	307014	58.21899475811	1.002
17	307024	58.24899475811	1.002
17	307451	58.27899475811	1.002
17	307579	58.30899475811	1.002
17	307589	58.33899475811	1.002
17	308001	58.36899475811	1.002
17	308196	58.39899475811	1.002
17	308213	58.42899475811	1.002
17	308551	58.45899475811	1.002
17	308746	58.48899475811	1.002
17	308837	58.51899475811	1.002
17	308847	58.54899475811	1.002
17	309285	58.57899475811	1.002
17	309413	58.60899475811	1.002
17	309423	58.63899475811	1.002
17	309824	58.66899475811	1.002
17	310019	58.69899475811	1.002
17	310036	58.72899475811	1.002
17	310374	58.75899475811	1.002
17	310569	58.78899475811	1.002
17	310660	58.81899475811	1.002
17	310670	58.84899475811	1.002
17	311102	58.87899475811	1.002
17	311230	58.90899475811	1.002
17	311240	58.93899475811	1.002
17	311630	58.96899475811	1.002
17	311825	58.99899475811	1.002
17	311842	59.02899475811	1.002
17	312174	59.05899475811	1.002
17	312369	59.08899475811	1.002
17	312460	59.11899475811	1.002
17	312470	59.14899475811	1.002
17	312924	59.17899475811	1.002
17	313052	59.20899475811	1.002
17	313062	59.23899475811	1.002
17	313479	59.26899475811	1.002
17	313674	59.29899475811	1.002
17	313691	59.32899475811	1.002
17	314018	59.35899475811	1.002
17	314213	59.38899475811	1.002
17	314304	59.41899475811	1.002
17	314314	59.44899475811	1.002
17	314741	59.47899475811	1.002
17	314869	59.50899475811	1.002
17	314879	59.53899475811	1.002
17	315275	59.56899475811	1.002
17	315470	59.59899475811	1.002
17	315487	59.62899475811	1.002
17	315830	59.65899475811	1.002
17	316025	59.68899475811	1.002
17	316116	59.71899475811	1.002
17	316126	59.74899475811	1.002
17	316542	59.77899475811	1.002
17	316670	59.80899475811	1.002
17	316680	59.83899475811	1.002
17	317092	59.86899475811	1.002
17	317287	59.89899475811	1.002
17	317304	59.92899475811	1.002
17	317647	59.95899475811	1.002
17	317842	59.98899475811	1.002
17	317933	60.01899475811	1.002
17	317943	60.04899475811	1.002
17	318370	60.07899475811	1.002
17	318498	60.10899475811	1.002
17	318508	60.13899475811	1.002
17	318898	60.16899475811	1.002
17	319093	60.19899475811	1.002
17	319110	60.22899475811	1.002
17	319458	60.25899475811	1.002
17	319653	60.28899475811	1.002
17	319744	60.31899475811	1.002
17	319754	60.34899475811	1.002
17	320181	60.37899475811	1.002
17	320309	60.40899475811	1.002
17	320319	60.43899475811	1.002
17	320720	60.46899475811	1.002
17	320915	60.49899475811	1.002
17	320932	60.52899475811	1.002
17	321291	60.55899475811	1.002
17	321486	60.58899475811	1.002
17	321577	60.61899475811	1.002
17	321587	60.64899475811	1.002
17	322041	60.67899475811	1.002
17	322169	60.70899475811	1.002
17	322179	60.73899475811	1.002
17	322596	60.76899475811	1.002
17	322791	60.79899475811	1.002
17	322808	60.82899475811	1.002
17	323151	60.85899475811	1.002
17	323346	60.88899475811	1.002
17	323437	60.91899475811	1.002
17	323447	60.94899475811	1.002
17	323880	60.97899475811	1.002
17	324008	61.00899475811	1.002
17	324018	61.03899475811	1.002
17	324435	61.06899475811	1.002
17	324630	61.09899475811	1.002
17	324647	61.12899475811	1.002
17	324974	61.15899475811	1.002
17	325169	61.18899475811	1.002
17	325260	61.21899475811	1.002
17	325270	61.24899475811	1.002
17	325740	61.27899475811	1.002
17	325868	61.30899475811	1.002
17	325878	61.33899475811	1.002
17	326263	61.36899475811	1.002
17	326458	61.39899475811	1.002
17	326475	61.42899475811	1.002
17	326797	61.45899475811	1.002
17	326992	61.48899475811	1.002
17	327083	61.51899475811	1.002
17	327093	61.54899475811	1.002
17	327536	61.57899475811	1.002
16	52	1.06899475811	1
16	67	1.09899475811	2
16	72	1.12899475811	3
16	102	1.15899475811	4
16	117	1.18899475811	5
16	135	1.21899475811	6
16	137	1.24899475811	7
16	167	1.27899475811	8
16	185	1.30899475811	9
16	187	1.33899475811	10
16	217	1.36899475811	11
16	232	1.39899475811	12
16	237	1.42899475811	13
16	267	1.45899475811	14
16	282	1.48899475811	15
16	300	1.51899475811	16
16	302	1.54899475811	17
16	332	1.57899475811	18
16	350	1.60899475811	19
16	352	1.63899475811	20
16	382	1.66899475811	21
16	397	1.69899475811	22
16	402	1.72899475811	23
16	432	1.75899475811	24
16	447	1.78899475811	25
16	465	1.81899475811	26
16	467	1.84899475811	27
16	497	1.87899475811	28
16	515	1.90899475811	29
16	517	1.93899475811	30
16	547	1.96899475811	31
16	562	1.99899475811	32
16	567	2.02899475811	33
16	597	2.05899475811	34
16	612	2.08899475811	35
16	630	2.11899475811	36
16	632	2.14899475811	37
16	662	2.17899475811	38
16	680	2.20899475811	39
16	682	2.23899475811	40
16	712	2.26899475811	41
16	727	2.29899475811	42
16	732	2.32899475811	43
16	762	2.35899475811	44
16	777	2.38899475811	45
16	795	2.41899475811	46
16	797	2.44899475811	47
16	827	2.47899475811	48
16	845	2.50899475811	49
16	847	2.53899475811	50
16	877	2.56899475811	51
16	892	2.59899475811	52
16	897	2.62899475811	53
16	927	2.65899475811	54
16	942	2.68899475811	55
16	960	2.71899475811	56
16	962	2.74899475811	57
16	992	2.77899475811	58
16	1010	2.80899475811	59
16	1012	2.83899475811	60
16	1042	2.86899475811	61
16	1057	2.89899475811	62
16	1062	2.92899475811	63
16	1092	2.95899475811	64
16	1107	2.98899475811	65
16	1125	3.01899475811	66
16	1127	3.04899475811	67
16	1157	3.07899475811	68
16	1175	3.10899475811	69
16	1177	3.13899475811	70
16	1220	3.16899475811	71
16	1241	3.19899475811	72
16	1247	3.22899475811	73
16	1290	3.25899475811	74
16	1311	3.28899475811	75
16	1336	3.31899475811	76
16	1340	3.34899475811	78
16	1423	3.37899475811	80
16	1450	3.40899475811	82
16	1454	3.43899475811	84
16	1549	3.46899475811	86
16	1591	3.49899475811	88
16	1599	3.52899475811	90
16	1682	3.55899475811	92
16	1724	3.58899475811	94
16	1751	3.61899475811	96
16	1755	3.64899475811	98
16	1850	3.67899475811	100
16	1877	3.70899475811	102
16	1881	3.73899475811	104
16	1976	3.76899475811	106
16	2018	3.79899475811	108
16	2026	3.82899475811	110
16	2109	3.85899475811	112
16	2151	3.88899475811	114
16	2178	3.91899475811	116
16	2182	3.94899475811	118
16	2277	3.97899475811	120
16	2304	4.00899475811	122
16	2308	4.03899475811	124
16	2403	4.06899475811	126
16	2445	4.09899475811	128
16	2453	4.12899475811	130
16	2536	4.15899475811	132
16	2578	4.18899475811	134
16	2605	4.21899475811	136
16	2609	4.24899475811	138
16	2711	4.27899475811	140
16	2738	4.30899475811	142
16	2742	4.33899475811	144
16	2844	4.36899475811	146
16	2886	4.39899475811	148
16	2894	4.42899475811	150
16	2977	4.45899475811	152
16	3019	4.48899475811	154
16	3046	4.51899475811	156
16	3050	4.54899475811	158
16	3152	4.57899475811	160
16	3179	4.60899475811	162
16	3183	4.63899475811	164
16	3278	4.66899475811	166
16	3320	4.69899475811	168
16	3328	4.72899475811	170
16	3411	4.75899475811	172
16	3453	4.78899475811	174
16	3480	4.81899475811	176
16	3484	4.84899475811	178
16	3579	4.87899475811	180
16	3606	4.90899475811	182
16	3610	4.93899475811	184
16	3712	4.96899475811	186
16	3754	4.99899475811	188
16	3762	5.02899475811	190
16	3845	5.05899475811	192
16	3887	5.08899475811	194
16	3914	5.11899475811	196
16	3918	5.14899475811	198
16	4013	5.17899475811	200
16	4040	5.20899475811	202
16	4044	5.23899475811	204
16	4139	5.26899475811	206
16	4181	5.29899475811	208
16	4189	5.32899475811	210
16	4272	5.35899475811	212
16	4314	5.38899475811	214
16	4341	5.41899475811	216
16	4345	5.44899475811	218
16	4447	5.47899475811	220
16	4474	5.50899475811	222
16	4478	5.53899475811	224
16	4573	5.56899475811	226
16	4615	5.59899475811	228
16	4623	5.62899475811	230
16	4706	5.65899475811	232
16	4748	5.68899475811	234
16	4775	5.71899475811	236
16	4779	5.74899475811	238
16	4881	5.77899475811	240
16	4908	5.80899475811	242
16	4912	5.83899475811	244
16	5014	5.86899475811	246
16	5056	5.89899475811	248
16	5064	5.92899475811	250
16	5140	5.95899475811	252
16	5182	5.98899475811	254
16	5209	6.01899475811	256
16	5213	6.04899475811	258
16	5315	6.07899475811	260
16	5342	6.10899475811	262
16	5346	6.13899475811	264
16	5479	6.16899475811	266
16	5533	6.19899475811	268
16	5542	6.22899475811	270
16	5667	6.25899475811	273
16	5748	6.28899475811	276
16	5784	6.31899475811	279
16	5790	6.34899475811	282
16	5990	6.37899475811	285
16	6051	6.40899475811	288
16	6057	6.43899475811	291
16	6232	6.46899475811	294
16	6313	6.49899475811	297
16	6324	6.52899475811	300
16	6474	6.55899475811	303
16	6555	6.58899475811	306
16	6591	6.61899475811	309
16	6597	6.64899475811	312
16	6797	6.67899475811	315
16	6858	6.70899475811	318
16	6864	6.73899475811	321
16	7029	6.76899475811	324
16	7110	6.79899475811	327
16	7121	6.82899475811	330
16	7271	6.85899475811	333
16	7352	6.88899475811	336
16	7388	6.91899475811	339
16	7394	6.94899475811	342
16	7584	6.97899475811	345
16	7645	7.00899475811	348
16	7651	7.03899475811	351
16	7836	7.06899475811	354
16	7917	7.09899475811	357
16	7928	7.12899475811	360
16	8078	7.15899475811	363
16	8159	7.18899475811	366
16	8195	7.21899475811	369
16	8201	7.24899475811	372
16	8411	7.27899475811	375
16	8472	7.30899475811	378
16	8478	7.33899475811	381
16	8643	7.36899475811	384
16	8724	7.39899475811	387
16	8735	7.42899475811	390
16	8885	7.45899475811	393
16	8966	7.48899475811	396
16	9002	7.51899475811	399
16	9008	7.54899475811	402
16	9218	7.57899475811	405
16	9279	7.60899475811	408
16	9285	7.63899475811	411
16	9450	7.66899475811	414
16	9531	7.69899475811	417
16	9542	7.72899475811	420
16	9682	7.75899475811	423
16	9763	7.78899475811	426
16	9799	7.81899475811	429
16	9805	7.84899475811	432
16	9998	7.87899475811	435
16	10059	7.90899475811	438
16	10065	7.93899475811	441
16	10250	7.96899475811	444
16	10331	7.99899475811	447
16	10342	8.02899475811	450
16	10492	8.05899475811	453
16	10573	8.08899475811	456
16	10609	8.11899475811	459
16	10615	8.14899475811	462
16	10825	8.17899475811	465
16	10886	8.20899475811	468
16	10892	8.23899475811	471
16	11067	8.26899475811	474
16	11148	8.29899475811	477
16	11159	8.32899475811	480
16	11309	8.35899475811	483
16	11390	8.38899475811	486
16	11426	8.41899475811	489
16	11432	8.44899475811	492
16	11642	8.47899475811	495
16	11703	8.50899475811	498
16	11709	8.53899475811	501
16	11894	8.56899475811	504
16	11975	8.59899475811	507
16	11986	8.62899475811	510
16	12136	8.65899475811	513
16	12217	8.68899475811	516
16	12253	8.71899475811	519
16	12259	8.74899475811	522
16	12469	8.77899475811	525
16	12530	8.80899475811	528
16	12536	8.83899475811	531
16	12711	8.86899475811	534
16	12792	8.89899475811	537
16	12803	8.92899475811	540
16	12953	8.95899475811	543
16	13034	8.98899475811	546
16	13070	9.01899475811	549
16	13076	9.04899475811	552
16	13266	9.07899475811	555
16	13327	9.10899475811	558
16	13333	9.13899475811	561
16	13548	9.16899475811	564
16	13647	9.19899475811	567
16	13659	9.22899475811	570
16	13843	9.25899475811	573
16	13942	9.28899475811	576
16	13985	9.31899475811	579
16	13991	9.34899475811	582
16	14237	9.37899475811	585
16	14311	9.40899475811	588
16	14317	9.43899475811	591
16	14520	9.46899475811	594
16	14619	9.49899475811	597
16	14631	9.52899475811	600
16	14815	9.55899475811	603
16	14914	9.58899475811	606
16	14957	9.61899475811	609
16	14963	9.64899475811	612
16	15209	9.67899475811	615
16	15283	9.70899475811	618
16	15289	9.73899475811	621
16	15517	9.76899475811	624
16	15616	9.79899475811	627
16	15628	9.82899475811	630
16	15845	9.85899475811	634
16	15977	9.88899475811	638
16	16053	9.91899475811	642
16	16061	9.94899475811	646
16	16358	9.97899475811	650
16	16465	10.00899475811	654
16	16473	10.03899475811	658
16	16730	10.06899475811	662
16	16862	10.09899475811	666
16	16876	10.12899475811	670
16	17111	10.15899475811	674
16	17243	10.18899475811	678
16	17319	10.21899475811	682
16	17327	10.24899475811	686
16	17624	10.27899475811	690
16	17731	10.30899475811	694
16	17739	10.33899475811	698
16	18005	10.36899475811	702
16	18137	10.39899475811	706
16	18151	10.42899475811	710
16	18390	10.45899475811	714
16	18522	10.48899475811	718
16	18598	10.51899475811	722
16	18606	10.54899475811	726
16	18903	10.57899475811	730
16	19010	10.60899475811	734
16	19018	10.63899475811	738
16	19284	10.66899475811	742
16	19416	10.69899475811	746
16	19430	10.72899475811	750
16	19656	10.75899475811	754
16	19788	10.78899475811	758
16	19864	10.81899475811	762
16	19872	10.84899475811	766
16	20169	10.87899475811	770
16	20276	10.90899475811	774
16	20284	10.93899475811	778
16	20541	10.96899475811	782
16	20673	10.99899475811	786
16	20687	11.02899475811	790
16	20922	11.05899475811	794
16	21054	11.08899475811	798
16	21130	11.11899475811	802
16	21138	11.14899475811	806
16	21435	11.17899475811	810
16	21542	11.20899475811	814
16	21550	11.23899475811	818
16	21820	11.26899475811	822
16	21952	11.29899475811	826
16	21966	11.32899475811	830
16	22201	11.35899475811	834
16	22333	11.38899475811	838
16	22409	11.41899475811	842
16	22417	11.44899475811	846
16	22714	11.47899475811	850
16	22821	11.50899475811	854
16	22829	11.53899475811	858
16	23086	11.56899475811	862
16	23218	11.59899475811	866
16	23232	11.62899475811	870
16	23458	11.65899475811	874
16	23590	11.68899475811	878
16	23666	11.71899475811	882
16	23674	11.74899475811	886
16	23971	11.77899475811	890
16	24078	11.80899475811	894
16	24086	11.83899475811	898
16	24365	11.86899475811	902
16	24497	11.89899475811	906
16	24511	11.92899475811	910
16	24737	11.95899475811	914
16	24869	11.98899475811	918
16	24945	12.01899475811	922
16	24953	12.04899475811	926
16	25250	12.07899475811	930
16	25357	12.10899475811	934
16	25365	12.13899475811	938
16	25696	12.16899475811	942
16	25852	12.19899475811	946
16	25867	12.22899475811	950
16	26135	12.25899475811	954
16	26291	12.28899475811	958
16	26380	12.31899475811	962
16	26388	12.34899475811	966
16	26740	12.37899475811	970
16	26866	12.40899475811	974
16	26874	12.43899475811	978
16	27201	12.46899475811	983
16	27396	12.49899475811	988
16	27413	12.52899475811	993
16	27756	12.55899475811	998
16	27951	12.58899475811	1003
16	28042	12.61899475811	1008
16	28052	12.64899475811	1013
16	28491	12.67899475811	1018
16	28619	12.70899475811	1023
16	28629	12.73899475811	1028
16	29020	12.76899475811	1033
16	29215	12.79899475811	1038
16	29232	12.82899475811	1043
16	29565	12.85899475811	1048
16	29760	12.88899475811	1053
16	29851	12.91899475811	1058
16	29861	12.94899475811	1063
16	30310	12.97899475811	1068
16	30438	13.00899475811	1073
16	30448	13.03899475811	1078
16	30850	13.06899475811	1083
16	31045	13.09899475811	1088
16	31062	13.12899475811	1093
16	31405	13.15899475811	1098
16	31600	13.18899475811	1103
16	31691	13.21899475811	1108
16	31701	13.24899475811	1113
16	32150	13.27899475811	1118
16	32278	13.30899475811	1123
16	32288	13.33899475811	1128
16	32716	13.36899475811	1133
16	32911	13.39899475811	1138
16	32928	13.42899475811	1143
16	33267	13.45899475811	1148
16	33462	13.48899475811	1153
16	33553	13.51899475811	1158
16	33563	13.54899475811	1163
16	33985	13.57899475811	1168
16	34113	13.60899475811	1173
16	34123	13.63899475811	1178
16	34540	13.66899475811	1183
16	34735	13.69899475811	1188
16	34752	13.72899475811	1193
16	35111	13.75899475811	1198
16	35306	13.78899475811	1203
16	35397	13.81899475811	1208
16	35407	13.84899475811	1213
16	35861	13.87899475811	1218
16	35989	13.90899475811	1223
16	35999	13.93899475811	1228
16	36427	13.96899475811	1233
16	36622	13.99899475811	1238
16	36639	14.02899475811	1243
16	36979	14.05899475811	1248
16	37174	14.08899475811	1253
16	37265	14.11899475811	1258
16	37275	14.14899475811	1263
16	37713	14.17899475811	1268
16	37841	14.20899475811	1273
16	37851	14.23899475811	1278
16	38253	14.26899475811	1283
16	38448	14.29899475811	1288
16	38465	14.32899475811	1293
16	38797	14.35899475811	1298
16	38992	14.38899475811	1303
16	39083	14.41899475811	1308
16	39093	14.44899475811	1313
16	39552	14.47899475811	1318
16	39680	14.50899475811	1323
16	39690	14.53899475811	1328
16	40091	14.56899475811	1333
16	40286	14.59899475811	1338
16	40303	14.62899475811	1343
16	40662	14.65899475811	1348
16	40857	14.68899475811	1353
16	40948	14.71899475811	1358
16	40958	14.74899475811	1363
16	41401	14.77899475811	1368
16	41529	14.80899475811	1373
16	41539	14.83899475811	1378
16	41951	14.86899475811	1383
16	42146	14.89899475811	1388
16	42163	14.92899475811	1393
16	42511	14.95899475811	1398
16	42706	14.98899475811	1403
16	42797	15.01899475811	1408
16	42807	15.04899475811	1413
16	43240	15.07899475811	1418
16	43368	15.10899475811	1423
[...]
14	224993	44.800095691668	0.002
14	225018	44.850095691668	0.001
14	225611	44.900095691668	0.002
14	225632	44.950095691668	0.001
14	226239	45.000095691668	0.002
14	226261	45.050095691668	0.001
14	226827	45.100095691668	0.002
14	226852	45.150095691668	0.001
14	227440	45.200095691668	0.002
14	227461	45.250095691668	0.001
14	228084	45.300095691668	0.002
14	228106	45.350095691668	0.001
14	228666	45.400095691668	0.002
14	228691	45.450095691668	0.001
14	229300	45.500095691668	0.002
14	229321	45.550095691668	0.001
14	229949	45.600095691668	0.002
14	229971	45.650095691668	0.001
14	230526	45.700095691668	0.002
14	230551	45.750095691668	0.001
14	231149	45.800095691668	0.002
14	231170	45.850095691668	0.001
14	231798	45.900095691668	0.002
14	231820	45.950095691668	0.001
14	232391	46.000095691668	0.002
14	232416	46.050095691668	0.001
14	233014	46.100095691668	0.002
14	233035	46.150095691668	0.001
14	233631	46.200095691668	0.002
14	233653	46.250095691668	0.001
14	234213	46.300095691668	0.002
14	234238	46.350095691668	0.001
14	234836	46.400095691668	0.002
14	234857	46.450095691668	0.001
14	235469	46.500095691668	0.002
14	235491	46.550095691668	0.001
14	236041	46.600095691668	0.002
14	236066	46.650095691668	0.001
14	236653	46.700095691668	0.002
14	236674	46.750095691668	0.001
14	237275	46.800095691668	0.002
14	237297	46.850095691668	0.001
14	237852	46.900095691668	0.002
14	237877	46.950095691668	0.001
14	238475	47.000095691668	0.002
14	238496	47.050095691668	0.001
14	239103	47.100095691668	0.002
14	239125	47.150095691668	0.001
14	239680	47.200095691668	0.002
14	239705	47.250095691668	0.001
14	240309	47.300095691668	0.002
14	240330	47.350095691668	0.001
14	240947	47.400095691668	0.002
14	240969	47.450095691668	0.001
14	241540	47.500095691668	0.002
14	241565	47.550095691668	0.001
14	242174	47.600095691668	0.002
14	242195	47.650095691668	0.001
14	242802	47.700095691668	0.002
14	242824	47.750095691668	0.001
14	243384	47.800095691668	0.002
14	243409	47.850095691668	0.001
14	244013	47.900095691668	0.002
14	244034	47.950095691668	0.001
14	244646	48.000095691668	0.002
14	244668	48.050095691668	0.001
14	245223	48.100095691668	0.002
14	245248	48.150095691668	0.001
14	245836	48.200095691668	0.002
14	245857	48.250095691668	0.001
14	246458	48.300095691668	0.002
14	246480	48.350095691668	0.001
14	247040	48.400095691668	0.002
14	247065	48.450095691668	0.001
14	247653	48.500095691668	0.002
14	247674	48.550095691668	0.001
14	248270	48.600095691668	0.002
14	248292	48.650095691668	0.001
14	248847	48.700095691668	0.002
14	248872	48.750095691668	0.001
14	249481	48.800095691668	0.002
14	249502	48.850095691668	0.001
14	250114	48.900095691668	0.002
14	250136	48.950095691668	0.001
14	250691	49.000095691668	0.002
14	250716	49.050095691668	0.001
14	251304	49.100095691668	0.002
14	251325	49.150095691668	0.001
14	251926	49.200095691668	0.002
14	251948	49.250095691668	0.001
14	252503	49.300095691668	0.002
14	252528	49.350095691668	0.001
14	253132	49.400095691668	0.002
14	253153	49.450095691668	0.001
14	253760	49.500095691668	0.002
14	253782	49.550095691668	0.001
14	254332	49.600095691668	0.002
14	254357	49.650095691668	0.001
14	254966	49.700095691668	0.002
14	254987	49.750095691668	0.001
14	255599	49.800095691668	0.002
14	255621	49.850095691668	0.001
14	256192	49.900095691668	0.002
14	256217	49.950095691668	0.001
14	256810	50.000095691668	0.002
14	256831	50.050095691668	0.001
14	257459	50.100095691668	0.002
14	257481	50.150095691668	0.001
14	258036	50.200095691668	0.002
14	258061	50.250095691668	0.001
14	258670	50.300095691668	0.002
14	258691	50.350095691668	0.001
14	259287	50.400095691668	0.002
14	259309	50.450095691668	0.001
14	259869	50.500095691668	0.002
14	259894	50.550095691668	0.001
14	260503	50.600095691668	0.002
14	260524	50.650095691668	0.001
14	261147	50.700095691668	0.002
14	261169	50.750095691668	0.001
14	261713	50.800095691668	0.002
14	261738	50.850095691668	0.001
14	262320	50.900095691668	0.002
14	262341	50.950095691668	0.001
14	262937	51.000095691668	0.002
14	262959	51.050095691668	0.001
14	263503	51.100095691668	0.002
14	263528	51.150095691668	0.001
14	264099	51.200095691668	0.002
14	264120	51.250095691668	0.001
14	264721	51.300095691668	0.002
14	264743	51.350095691668	0.001
14	265298	51.400095691668	0.002
14	265323	51.450095691668	0.001
14	265916	51.500095691668	0.002
14	265937	51.550095691668	0.001
14	266533	51.600095691668	0.002
14	266555	51.650095691668	0.001
14	267110	51.700095691668	0.002
14	267135	51.750095691668	0.001
14	267739	51.800095691668	0.002
14	267760	51.850095691668	0.001
14	268345	51.900095691668	0.002
14	268367	51.950095691668	0.001
14	268938	52.000095691668	0.002
14	268963	52.050095691668	0.001
14	269588	52.100095691668	0.002
14	269609	52.150095691668	0.001
14	270221	52.200095691668	0.002
14	270243	52.250095691668	0.001
14	270803	52.300095691668	0.002
14	270828	52.350095691668	0.001
14	271410	52.400095691668	0.002
14	271431	52.450095691668	0.001
14	272043	52.500095691668	0.002
14	272065	52.550095691668	0.001
14	272636	52.600095691668	0.002
14	272661	52.650095691668	0.001
14	273281	52.700095691668	0.002
14	273302	52.750095691668	0.001
14	273898	52.800095691668	0.002
14	273920	52.850095691668	0.001
14	274475	52.900095691668	0.002
14	274500	52.950095691668	0.001
14	275109	53.000095691668	0.002
14	275130	53.050095691668	0.001
14	275715	53.100095691668	0.002
14	275737	53.150095691668	0.001
14	276303	53.200095691668	0.002
14	276328	53.250095691668	0.001
14	276915	53.300095691668	0.002
14	276936	53.350095691668	0.001
14	277543	53.400095691668	0.002
14	277565	53.450095691668	0.001
14	278120	53.500095691668	0.002
14	278145	53.550095691668	0.001
14	278733	53.600095691668	0.002
14	278754	53.650095691668	0.001
14	279377	53.700095691668	0.002
14	279399	53.750095691668	0.001
14	279943	53.800095691668	0.002
14	279968	53.850095691668	0.001
14	280577	53.900095691668	0.002
14	280598	53.950095691668	0.001
14	281226	54.000095691668	0.002
14	281248	54.050095691668	0.001
14	281819	54.100095691668	0.002
14	281844	54.150095691668	0.001
14	282453	54.200095691668	0.002
14	282474	54.250095691668	0.001
14	283086	54.300095691668	0.002
14	283108	54.350095691668	0.001
14	283679	54.400095691668	0.002
14	283704	54.450095691668	0.001
14	284308	54.500095691668	0.002
14	284329	54.550095691668	0.001
14	284941	54.600095691668	0.002
14	284963	54.650095691668	0.001
14	285523	54.700095691668	0.002
14	285548	54.750095691668	0.001
14	286168	54.800095691668	0.002
14	286189	54.850095691668	0.001
14	286790	54.900095691668	0.002
14	286812	54.950095691668	0.001
14	287356	55.000095691668	0.002
14	287381	55.050095691668	0.001
14	287990	55.100095691668	0.002
14	288011	55.150095691668	0.001
14	288634	55.200095691668	0.002
14	288656	55.250095691668	0.001
14	289227	55.300095691668	0.002
14	289252	55.350095691668	0.001
14	289861	55.400095691668	0.002
14	289882	55.450095691668	0.001
14	290494	55.500095691668	0.002
14	290516	55.550095691668	0.001
14	291076	55.600095691668	0.002
14	291101	55.650095691668	0.001
14	291699	55.700095691668	0.002
14	291720	55.750095691668	0.001
14	292327	55.800095691668	0.002
14	292349	55.850095691668	0.001
14	292904	55.900095691668	0.002
14	292929	55.950095691668	0.001
14	293500	56.000095691668	0.002
14	293521	56.050095691668	0.001
14	294128	56.100095691668	0.002
14	294150	56.150095691668	0.001
14	294694	56.200095691668	0.002
14	294719	56.250095691668	0.001
14	295323	56.300095691668	0.002
14	295344	56.350095691668	0.001
14	295951	56.400095691668	0.002
14	295973	56.450095691668	0.001
14	296528	56.500095691668	0.002
14	296553	56.550095691668	0.001
14	297162	56.600095691668	0.002
14	297183	56.650095691668	0.001
14	297795	56.700095691668	0.002
14	297817	56.750095691668	0.001
14	298399	56.800095691668	0.002
14	298424	56.850095691668	0.001
14	299017	56.900095691668	0.002
14	299038	56.950095691668	0.001
14	299650	57.000095691668	0.002
14	299672	57.050095691668	0.001
14	300248	57.100095691668	0.002
14	300273	57.150095691668	0.001
14	300866	57.200095691668	0.002
14	300887	57.250095691668	0.001
14	301483	57.300095691668	0.002
14	301505	57.350095691668	0.001
14	302060	57.400095691668	0.002
14	302085	57.450095691668	0.001
14	302678	57.500095691668	0.002
14	302699	57.550095691668	0.001
14	303322	57.600095691668	0.002
14	303344	57.650095691668	0.001
14	303899	57.700095691668	0.002
14	303924	57.750095691668	0.001
14	304544	57.800095691668	0.002
14	304565	57.850095691668	0.001
14	305161	57.900095691668	0.002
14	305183	57.950095691668	0.001
14	305743	58.000095691668	0.002
14	305768	58.050095691668	0.001
14	306361	58.100095691668	0.002
14	306382	58.150095691668	0.001
14	307005	58.200095691668	0.002
14	307027	58.250095691668	0.001
14	307571	58.300095691668	0.002
14	307596	58.350095691668	0.001
14	308200	58.400095691668	0.002
14	308221	58.450095691668	0.001
14	308828	58.500095691668	0.002
14	308850	58.550095691668	0.001
14	309405	58.600095691668	0.002
14	309430	58.650095691668	0.001
14	310023	58.700095691668	0.002
14	310044	58.750095691668	0.001
14	310651	58.800095691668	0.002
14	310673	58.850095691668	0.001
14	311222	58.900095691668	0.002
14	311247	58.950095691668	0.001
14	311829	59.000095691668	0.002
14	311850	59.050095691668	0.001
14	312451	59.100095691668	0.002
14	312473	59.150095691668	0.001
14	313044	59.200095691668	0.002
14	313069	59.250095691668	0.001
14	313678	59.300095691668	0.002
14	313699	59.350095691668	0.001
14	314295	59.400095691668	0.002
14	314317	59.450095691668	0.001
14	314861	59.500095691668	0.002
14	314886	59.550095691668	0.001
14	315474	59.600095691668	0.002
14	315495	59.650095691668	0.001
14	316107	59.700095691668	0.002
14	316129	59.750095691668	0.001
14	316662	59.800095691668	0.002
14	316687	59.850095691668	0.001
14	317291	59.900095691668	0.002
14	317312	59.950095691668	0.001
14	317924	60.000095691668	0.002
14	317946	60.050095691668	0.001
14	318490	60.100095691668	0.002
14	318515	60.150095691668	0.001
14	319097	60.200095691668	0.002
14	319118	60.250095691668	0.001
14	319735	60.300095691668	0.002
14	319757	60.350095691668	0.001
14	320301	60.400095691668	0.002
14	320326	60.450095691668	0.001
14	320919	60.500095691668	0.002
14	320940	60.550095691668	0.001
14	321568	60.600095691668	0.002
14	321590	60.650095691668	0.001
14	322161	60.700095691668	0.002
14	322186	60.750095691668	0.001
14	322795	60.800095691668	0.002
14	322816	60.850095691668	0.001
14	323428	60.900095691668	0.002
14	323450	60.950095691668	0.001
14	324000	61.000095691668	0.002
14	324025	61.050095691668	0.001
14	324634	61.100095691668	0.002
14	324655	61.150095691668	0.001
14	325251	61.200095691668	0.002
14	325273	61.250095691668	0.001
14	325860	61.300095691668	0.002
14	325885	61.350095691668	0.001
14	326462	61.400095691668	0.002
14	326483	61.450095691668	0.001
14	327074	61.500095691668	0.002
14	327096	61.550095691668	0.001
14	327655	61.600095691668	0.002
14	327675	61.650095691668	0.001
14	328115	61.700095691668	0.002
14	328132	61.750095691668	0.001
14	328530	61.800095691668	0.002
14	328548	61.850095691668	0.001
14	328934	61.900095691668	0.002
14	328954	61.950095691668	0.001
14	329394	62.000095691668	0.002
14	329411	62.050095691668	0.001
14	329822	62.100095691668	0.002
14	329840	62.150095691668	0.001
14	330235	62.200095691668	0.002
14	330255	62.250095691668	0.001
14	330664	62.300095691668	0.002
14	330681	62.350095691668	0.001
14	331079	62.400095691668	0.002
14	331097	62.450095691668	0.001
14	331505	62.500095691668	0.002
14	331525	62.550095691668	0.001
14	331956	62.600095691668	0.002
14	331973	62.650095691668	0.001
14	332371	62.700095691668	0.002
14	332389	62.750095691668	0.001
14	332766	62.800095691668	0.002
14	332786	62.850095691668	0.001
14	333200	62.900095691668	0.002
14	333217	62.950095691668	0.001
14	333628	63.000095691668	0.002
14	333646	63.050095691668	0.001
14	334054	63.100095691668	0.002
14	334074	63.150095691668	0.001
14	334501	63.200095691668	0.002
14	334518	63.250095691668	0.001
14	334929	63.300095691668	0.002
14	334947	63.350095691668	0.001
14	335346	63.400095691668	0.002
14	335366	63.450095691668	0.001
14	335797	63.500095691668	0.002
14	335814	63.550095691668	0.001
14	336225	63.600095691668	0.002
14	336243	63.650095691668	0.001
14	336629	63.700095691668	0.002
14	336649	63.750095691668	0.001
14	337089	63.800095691668	0.002
14	337106	63.850095691668	0.001
14	337517	63.900095691668	0.002
14	337535	63.950095691668	0.001
14	337934	64.000095691668	0.002
14	337954	64.050095691668	0.001
14	338381	64.100095691668	0.002
14	338398	64.150095691668	0.001
14	338783	64.200095691668	0.002
14	338801	64.250095691668	0.001
14	339196	64.300095691668	0.002
14	339216	64.350095691668	0.001
14	339656	64.400095691668	0.002
14	339673	64.450095691668	0.001
14	340071	64.500095691668	0.002
14	340089	64.550095691668	0.001
14	340484	64.600095691668	0.002
14	340499	64.650095691668	0.001
14	340753	64.700095691668	0.002
14	340767	64.750095691668	0.001
14	341023	64.800095691668	0.002
14	341036	64.850095691668	0.001
14	341284	64.900095691668	0.002
14	341299	64.950095691668	0.001
14	341553	65.000095691668	0.002
14	341567	65.050095691668	0.001
14	341823	65.100095691668	0.002
14	341836	65.150095691668	0.001
14	342091	65.200095691668	0.002
14	342106	65.250095691668	0.001
14	342360	65.300095691668	0.002
14	342374	65.350095691668	0.001
14	342640	65.400095691668	0.002
14	342653	65.450095691668	0.001
14	342918	65.500095691668	0.002
14	342933	65.550095691668	0.001
14	343187	65.600095691668	0.002
14	343201	65.650095691668	0.001
14	343457	65.700095691668	0.002
14	343470	65.750095691668	0.001
14	343715	65.800095691668	0.002
14	343730	65.850095691668	0.001
14	343974	65.900095691668	0.002
14	343988	65.950095691668	0.001
14	344244	66.000095691668	0.002
14	344257	66.050095691668	0.001
14	344512	66.100095691668	0.002
14	344527	66.150095691668	0.001
14	344781	66.200095691668	0.002
14	344795	66.250095691668	0.001
14	345061	66.300095691668	0.002
14	345074	66.350095691668	0.001
14	345329	66.400095691668	0.002
14	345344	66.450095691668	0.001
14	345608	66.500095691668	0.002
14	345622	66.550095691668	0.001
14	345888	66.600095691668	0.002
14	345901	66.650095691668	0.001
14	346146	66.700095691668	0.002
14	346161	66.750095691668	0.001
14	346415	66.800095691668	0.002
14	346429	66.850095691668	0.001
14	346695	66.900095691668	0.002
14	346708	66.950095691668	0.001
14	346963	67.000095691668	0.002
14	346978	67.050095691668	0.001
14	347232	67.100095691668	0.002
14	347246	67.150095691668	0.001
14	347502	67.200095691668	0.002
14	347515	67.250095691668	0.001
14	347770	67.300095691668	0.002
14	347785	67.350095691668	0.001
14	348049	67.400095691668	0.002
14	348063	67.450095691668	0.001
14	348319	67.500095691668	0.002
14	348332	67.550095691668	0.001
14	348580	67.600095691668	0.002
14	348595	67.650095691668	0.001
14	348859	67.700095691668	0.002
14	348873	67.750095691668	0.001
14	349128	67.800095691668	0.002
14	349137	67.850095691668	0.001
14	349261	67.900095691668	0.002
14	349272	67.950095691668	0.001
14	349415	68.000095691668	0.002
14	349424	68.050095691668	0.001
14	349569	68.100095691668	0.002
14	349578	68.150095691668	0.001
14	349702	68.200095691668	0.002
14	349713	68.250095691668	0.001
14	349849	68.300095691668	0.002
14	349858	68.350095691668	0.001
14	350003	68.400095691668	0.002
14	350012	68.450095691668	0.001
14	350129	68.500095691668	0.002
14	350140	68.550095691668	0.001
14	350276	68.600095691668	0.002
14	350285	68.650095691668	0.001
14	350430	68.700095691668	0.002
14	350439	68.750095691668	0.001
14	350556	68.800095691668	0.002
14	350567	68.850095691668	0.001
14	350710	68.900095691668	0.002
14	350719	68.950095691668	0.001
14	350864	69.000095691668	0.002
14	350873	69.050095691668	0.001
14	350997	69.100095691668	0.002
14	351008	69.150095691668	0.001
14	351144	69.200095691668	0.002
14	351153	69.250095691668	0.001
14	351298	69.300095691668	0.002
14	351307	69.350095691668	0.001
14	351431	69.400095691668	0.002
14	351442	69.450095691668	0.001
14	351578	69.500095691668	0.002
14	351587	69.550095691668	0.001
14	351732	69.600095691668	0.002
14	351741	69.650095691668	0.001
14	351865	69.700095691668	0.002
14	351876	69.750095691668	0.001
14	352012	69.800095691668	0.002
14	352021	69.850095691668	0.001
14	352166	69.900095691668	0.002
14	352175	69.950095691668	0.001
14	352299	70.000095691668	0.002
14	352310	70.050095691668	0.001
14	352446	70.100095691668	0.002
14	352455	70.150095691668	0.001
14	352600	70.200095691668	0.002
14	352609	70.250095691668	0.001
14	352733	70.300095691668	0.002
14	352744	70.350095691668	0.001
14	352880	70.400095691668	0.002
14	352889	70.450095691668	0.001
14	353034	70.500095691668	0.002
14	353043	70.550095691668	0.001
14	353160	70.600095691668	0.002
14	353171	70.650095691668	0.001
14	353307	70.700095691668	0.002
14	353311	70.750095691668	0.001
14	353357	70.800095691668	0.002
14	353363	70.850095691668	0.001
14	353407	70.900095691668	0.002
14	353413	70.950095691668	0.001
14	353472	71.000095691668	0.002
14	353476	71.050095691668	0.001
14	353522	71.100095691668	0.002
14	353528	71.150095691668	0.001
14	353572	71.200095691668	0.002
14	353578	71.250095691668	0.001
14	353637	71.300095691668	0.002
14	353641	71.350095691668	0.001
14	353687	71.400095691668	0.002
14	353693	71.450095691668	0.001
14	353737	71.500095691668	0.002
14	353743	71.550095691668	0.001
14	353802	71.600095691668	0.002
14	353806	71.650095691668	0.001
14	353852	71.700095691668	0.002
14	353858	71.750095691668	0.001
14	353902	71.800095691668	0.002
14	353908	71.850095691668	0.001
14	353967	71.900095691668	0.002
14	353971	71.950095691668	0.001
14	354017	72.000095691668	0.002
14	354023	72.050095691668	0.001
14	354067	72.100095691668	0.002
14	354073	72.150095691668	0.001
14	354132	72.200095691668	0.002
14	354136	72.250095691668	0.001
14	354182	72.300095691668	0.002
14	354188	72.350095691668	0.001
14	354232	72.400095691668	0.002
14	354238	72.450095691668	0.001
14	354297	72.500095691668	0.002
14	354301	72.550095691668	0.001
14	354347	72.600095691668	0.002
14	354353	72.650095691668	0.001
14	354397	72.700095691668	0.002
14	354403	72.750095691668	0.001
14	354462	72.800095691668	0.002
14	354466	72.850095691668	0.001
14	354512	72.900095691668	0.002
14	354518	72.950095691668	0.001
14	354562	73.000095691668	0.002
14	354568	73.050095691668	0.001
14	354627	73.100095691668	0.002
14	354631	73.150095691668	0.001
14	354677	73.200095691668	0.002
14	354683	73.250095691668	0.001
14	354727	73.300095691668	0.002
14	354733	73.350095691668	0.001
14	354792	73.400095691668	0.002
14	354796	73.450095691668	0.001
14	354842	73.500095691668	0.002
14	354848	73.550095691668	0.001
14	354892	73.600095691668	0.002
14	354898	73.650095691668	0.001
14	354957	73.700095691668	0.002
14	354958	73.750095691668	0.001
14	354959	73.800095691668	0.002
14	354960	73.850095691668	0.001
14	354961	73.900095691668	0.002
14	354962	73.950095691668	0.001
14	354963	74.000095691668	0.002
14	354964	74.050095691668	0.001
14	354965	74.100095691668	0.002
14	354966	74.150095691668	0.001
14	354967	74.200095691668	0.002
14	354968	74.250095691668	0.001
14	354969	74.300095691668	0.002
14	354970	74.350095691668	0.001
14	354971	74.400095691668	0.002
14	354972	74.450095691668	0.001
14	354973	74.500095691668	0.002
14	354974	74.550095691668	0.001
14	354975	74.600095691668	0.002
14	354976	74.650095691668	0.001
14	354977	74.700095691668	0.002
14	354978	74.750095691668	0.001
14	354979	74.800095691668	0.002
14	354980	74.850095691668	0.001
14	354981	74.900095691668	0.002
14	354982	74.950095691668	0.001
14	354983	75.000095691668	0.002
14	354984	75.050095691668	0.001
14	354985	75.100095691668	0.002
14	354986	75.150095691668	0.001
14	354987	75.200095691668	0.002
14	354988	75.250095691668	0.001
14	354989	75.300095691668	0.002
14	354990	75.350095691668	0.001
14	354991	75.400095691668	0.002
14	354992	75.450095691668	0.001
14	354993	75.500095691668	0.002
14	354994	75.550095691668	0.001
14	354995	75.600095691668	0.002
14	354996	75.650095691668	0.001
14	354997	75.700095691668	0.002
14	354998	75.750095691668	0.001
14	354999	75.800095691668	0.002
14	355000	75.850095691668	0.001
14	355001	75.900095691668	0.002
14	355002	75.950095691668	0.001
