version 2
run VoIP-30ms_280B-1-20160923-14:12:25-14643
attr configname VoIP-30ms_280B
attr datetime 20160923-14:12:25
attr experiment VoIP-30ms_280B
attr inifile omnetpp.ini
attr iterationvars ""
attr iterationvars2 $repetition=1
attr measurement ""
attr network SymScenerio
attr processid 14643
attr repetition 1
attr replication #1
attr resultdir results
attr runnumber 1
attr seedset 1
param **.coreDebug false
param **.debug false
param *.**.nic.mac1609_4.bitrate 18Mbps
param *.**.nic.mac1609_4.txPower 20mW
param *.**.nic.mac1609_4.useServiceChannel true
param *.**.nic.phy80211p.analogueModels "xmldoc(\"config.xml\")"
param *.**.nic.phy80211p.decider "xmldoc(\"config.xml\")"
param *.**.nic.phy80211p.sensitivity -89dBm
param *.**.nic.phy80211p.thermalNoise -110dBm
param *.**.nic.phy80211p.usePropagationDelay true
param *.**.nic.phy80211p.useThermalNoise true
param *.annotations.draw false
param *.connectionManager.alpha 2.0
param *.connectionManager.carrierFrequency "5.890e9 Hz"
param *.connectionManager.pMax 20mW
param *.connectionManager.sat -89dBm
param *.connectionManager.sendDirect true
param *.manager.autoShutdown true
param *.manager.host "\"localhost\""
param *.manager.launchConfig "xmldoc(\"map.launchd.xml\")"
param *.manager.margin 25
param *.manager.moduleDisplayString "\"\""
param *.manager.moduleName "\"node\""
param *.manager.moduleType "\"symulacja.veins.nodes.Car\""
param *.manager.port 9999
param *.manager.updateInterval 0.1s
param *.node[*].appl.beaconInterval 1s
param *.node[*].appl.beaconPriority 3
param *.node[*].appl.dataOnSch false
param *.node[*].appl.dataPriority 2
param *.node[*].appl.debug false
param *.node[*].appl.maxOffset 0.005s
param *.node[*].appl.sendBeacons false
param *.node[*].appl.sendData true
param *.node[*].appl.sendVoIP true
param *.node[*].appl.voipInterval 0.030s
param *.node[*].appl.voipLengthBits 2240bits
param *.node[*].appl.voipOnSch true
param *.node[*].appl.voipPriority 3
param *.node[*].applType "\"Sym11p\""
param *.node[*].veinsmobility.x 0
param *.node[*].veinsmobility.y 0
param *.node[*].veinsmobility.z 1.895
param *.node[*].veinsmobilityType "\"symulacja.veins.modules.mobility.traci.TraCIMobility\""
param *.playgroundSizeX 9000m
param *.playgroundSizeY 9000m
param *.playgroundSizeZ 50m
param *.rsu[*].appl.beaconInterval 1s
param *.rsu[*].appl.beaconPriority 3
param *.rsu[*].appl.dataOnSch false
param *.rsu[*].appl.dataPriority 2
param *.rsu[*].appl.debug false
param *.rsu[*].appl.headerLength "256 bit"
param *.rsu[*].appl.maxOffset 0.005s
param *.rsu[*].appl.sendBeacons false
param *.rsu[*].appl.sendData false
param *.rsu[*].appl.sendVoIP false
param *.rsu[*].applType "\"SymRSU11p\""
param *.rsu[0].mobility.x 2160
param *.rsu[0].mobility.y 3100
param *.rsu[0].mobility.z 3
param *.world.use2D false
param *.world.useTorus false

vector 14  SymScenerio.rsu[0].nic.mac1609_4  "Interwały kanałów"  ETV
vector 23  SymScenerio.node[0].veinsmobility  posx  ETV
vector 24  SymScenerio.node[0].veinsmobility  posy  ETV
vector 22  SymScenerio.node[0].nic.mac1609_4  "Interwały kanałów"  ETV
vector 25  SymScenerio.node[0].veinsmobility  speed  ETV
vector 15  SymScenerio.node[0].appl  "TX Packets"  ETV
vector 16  SymScenerio.node[0].appl  "TX Total"  ETV
vector 17  SymScenerio.node[0].appl  Pakietyzacja  ETV
vector 5  SymScenerio.rsu[0].appl  nodeALL:vector  ETV
attr source  nodeALL
attr title  "Opoznienia ALL, vector"
vector 9  SymScenerio.rsu[0].appl  "RX Packet"  ETV
vector 0  SymScenerio.rsu[0].appl  node0:vector  ETV
attr source  node0
attr title  "Opoznienia node0, vector"
vector 26  SymScenerio.node[0].veinsmobility  acceleration  ETV
vector 27  SymScenerio.node[0].veinsmobility  co2emission  ETV
vector 36  SymScenerio.node[1].veinsmobility  posx  ETV
vector 37  SymScenerio.node[1].veinsmobility  posy  ETV
vector 35  SymScenerio.node[1].nic.mac1609_4  "Interwały kanałów"  ETV
vector 38  SymScenerio.node[1].veinsmobility  speed  ETV
vector 39  SymScenerio.node[1].veinsmobility  acceleration  ETV
vector 40  SymScenerio.node[1].veinsmobility  co2emission  ETV
vector 28  SymScenerio.node[1].appl  "TX Packets"  ETV
vector 29  SymScenerio.node[1].appl  "TX Total"  ETV
vector 30  SymScenerio.node[1].appl  Pakietyzacja  ETV
vector 1  SymScenerio.rsu[0].appl  node1:vector  ETV
attr source  node1
attr title  "Opoznienia node1, vector"
vector 49  SymScenerio.node[2].veinsmobility  posx  ETV
vector 50  SymScenerio.node[2].veinsmobility  posy  ETV
vector 48  SymScenerio.node[2].nic.mac1609_4  "Interwały kanałów"  ETV
vector 51  SymScenerio.node[2].veinsmobility  speed  ETV
vector 52  SymScenerio.node[2].veinsmobility  acceleration  ETV
vector 53  SymScenerio.node[2].veinsmobility  co2emission  ETV
vector 41  SymScenerio.node[2].appl  "TX Packets"  ETV
vector 42  SymScenerio.node[2].appl  "TX Total"  ETV
vector 43  SymScenerio.node[2].appl  Pakietyzacja  ETV
vector 2  SymScenerio.rsu[0].appl  node2:vector  ETV
attr source  node2
attr title  "Opoznienia node2, vector"
vector 62  SymScenerio.node[3].veinsmobility  posx  ETV
vector 63  SymScenerio.node[3].veinsmobility  posy  ETV
vector 61  SymScenerio.node[3].nic.mac1609_4  "Interwały kanałów"  ETV
vector 54  SymScenerio.node[3].appl  "TX Packets"  ETV
vector 55  SymScenerio.node[3].appl  "TX Total"  ETV
vector 56  SymScenerio.node[3].appl  Pakietyzacja  ETV
vector 3  SymScenerio.rsu[0].appl  node3:vector  ETV
attr source  node3
attr title  "Opoznienia node3, vector"
vector 64  SymScenerio.node[3].veinsmobility  speed  ETV
vector 65  SymScenerio.node[3].veinsmobility  acceleration  ETV
vector 66  SymScenerio.node[3].veinsmobility  co2emission  ETV
vector 75  SymScenerio.node[4].veinsmobility  posx  ETV
vector 76  SymScenerio.node[4].veinsmobility  posy  ETV
vector 74  SymScenerio.node[4].nic.mac1609_4  "Interwały kanałów"  ETV
vector 77  SymScenerio.node[4].veinsmobility  speed  ETV
vector 78  SymScenerio.node[4].veinsmobility  acceleration  ETV
vector 79  SymScenerio.node[4].veinsmobility  co2emission  ETV
vector 67  SymScenerio.node[4].appl  "TX Packets"  ETV
vector 68  SymScenerio.node[4].appl  "TX Total"  ETV
vector 69  SymScenerio.node[4].appl  Pakietyzacja  ETV
vector 4  SymScenerio.rsu[0].appl  node4:vector  ETV
attr source  node4
attr title  "Opoznienia node4, vector"
17	12	0.253377946275	1.002
17	27	0.283377946275	1.002
17	45	0.313377946275	1.002
17	47	0.343377946275	1.002
17	77	0.373377946275	1.002
17	95	0.403377946275	1.002
17	97	0.433377946275	1.002
17	127	0.463377946275	1.002
17	142	0.493377946275	1.002
17	160	0.523377946275	1.002
17	164	0.553377946275	1.002
17	192	0.583377946275	1.002
17	210	0.613377946275	1.002
17	212	0.643377946275	1.002
17	242	0.673377946275	1.002
17	260	0.703377946275	1.002
17	262	0.733377946275	1.002
17	292	0.763377946275	1.002
17	307	0.793377946275	1.002
17	325	0.823377946275	1.002
17	329	0.853377946275	1.002
17	357	0.883377946275	1.002
17	375	0.913377946275	1.002
17	377	0.943377946275	1.002
17	407	0.973377946275	1.002
17	425	1.003377946275	1.002
17	427	1.033377946275	1.002
17	457	1.063377946275	1.002
17	472	1.093377946275	1.002
17	490	1.123377946275	1.002
17	494	1.153377946275	1.002
17	522	1.183377946275	1.002
17	540	1.213377946275	1.002
17	542	1.243377946275	1.002
17	572	1.273377946275	1.002
17	590	1.303377946275	1.002
17	592	1.333377946275	1.002
17	622	1.363377946275	1.002
17	637	1.393377946275	1.002
17	655	1.423377946275	1.002
17	659	1.453377946275	1.002
17	687	1.483377946275	1.002
17	705	1.513377946275	1.002
17	707	1.543377946275	1.002
17	737	1.573377946275	1.002
17	755	1.603377946275	1.002
17	757	1.633377946275	1.002
17	787	1.663377946275	1.002
17	802	1.693377946275	1.002
17	820	1.723377946275	1.002
17	824	1.753377946275	1.002
17	852	1.783377946275	1.002
17	870	1.813377946275	1.002
17	872	1.843377946275	1.002
17	902	1.873377946275	1.002
17	920	1.903377946275	1.002
17	922	1.933377946275	1.002
17	952	1.963377946275	1.002
17	967	1.993377946275	1.002
17	985	2.023377946275	1.002
17	989	2.053377946275	1.002
17	1017	2.083377946275	1.002
17	1035	2.113377946275	1.002
17	1037	2.143377946275	1.002
17	1067	2.173377946275	1.002
17	1085	2.203377946275	1.002
17	1087	2.233377946275	1.002
17	1117	2.263377946275	1.002
17	1132	2.293377946275	1.002
17	1150	2.323377946275	1.002
17	1154	2.353377946275	1.002
17	1182	2.383377946275	1.002
17	1200	2.413377946275	1.002
17	1202	2.443377946275	1.002
17	1232	2.473377946275	1.002
17	1250	2.503377946275	1.002
17	1252	2.533377946275	1.002
17	1282	2.563377946275	1.002
17	1297	2.593377946275	1.002
17	1315	2.623377946275	1.002
17	1319	2.653377946275	1.002
17	1347	2.683377946275	1.002
17	1365	2.713377946275	1.002
17	1367	2.743377946275	1.002
17	1397	2.773377946275	1.002
17	1415	2.803377946275	1.002
17	1417	2.833377946275	1.002
17	1447	2.863377946275	1.002
17	1462	2.893377946275	1.002
17	1480	2.923377946275	1.002
17	1484	2.953377946275	1.002
17	1512	2.983377946275	1.002
17	1530	3.013377946275	1.002
17	1532	3.043377946275	1.002
17	1562	3.073377946275	1.002
17	1580	3.103377946275	1.002
17	1582	3.133377946275	1.002
17	1625	3.163377946275	1.002
17	1646	3.193377946275	1.002
17	1671	3.223377946275	1.002
17	1676	3.253377946275	1.002
17	1716	3.283377946275	1.002
17	1741	3.313377946275	1.002
17	1743	3.343377946275	1.002
17	1786	3.373377946275	1.002
17	1811	3.403377946275	1.002
17	1813	3.433377946275	1.002
17	1856	3.463377946275	1.002
17	1877	3.493377946275	1.002
17	1902	3.523377946275	1.002
17	1907	3.553377946275	1.002
17	1947	3.583377946275	1.002
17	1972	3.613377946275	1.002
17	1974	3.643377946275	1.002
17	2017	3.673377946275	1.002
17	2042	3.703377946275	1.002
17	2044	3.733377946275	1.002
17	2087	3.763377946275	1.002
17	2108	3.793377946275	1.002
17	2133	3.823377946275	1.002
17	2138	3.853377946275	1.002
17	2199	3.883377946275	1.002
17	2245	3.913377946275	1.002
17	2249	3.943377946275	1.002
17	2325	3.973377946275	1.002
17	2371	4.003377946275	1.002
17	2375	4.033377946275	1.002
17	2451	4.063377946275	1.002
17	2493	4.093377946275	1.002
17	2539	4.123377946275	1.002
17	2546	4.153377946275	1.002
17	2626	4.183377946275	1.002
17	2672	4.213377946275	1.002
17	2676	4.243377946275	1.002
17	2752	4.273377946275	1.002
17	2798	4.303377946275	1.002
17	2802	4.333377946275	1.002
17	2885	4.363377946275	1.002
17	2927	4.393377946275	1.002
17	2973	4.423377946275	1.002
17	2980	4.453377946275	1.002
17	3060	4.483377946275	1.002
17	3106	4.513377946275	1.002
17	3110	4.543377946275	1.002
17	3186	4.573377946275	1.002
17	3232	4.603377946275	1.002
17	3236	4.633377946275	1.002
17	3312	4.663377946275	1.002
17	3354	4.693377946275	1.002
17	3400	4.723377946275	1.002
17	3407	4.753377946275	1.002
17	3487	4.783377946275	1.002
17	3533	4.813377946275	1.002
17	3537	4.843377946275	1.002
17	3620	4.873377946275	1.002
17	3666	4.903377946275	1.002
17	3670	4.933377946275	1.002
17	3753	4.963377946275	1.002
17	3795	4.993377946275	1.002
17	3841	5.023377946275	1.002
17	3848	5.053377946275	1.002
17	3928	5.083377946275	1.002
17	3974	5.113377946275	1.002
17	3978	5.143377946275	1.002
17	4054	5.173377946275	1.002
17	4100	5.203377946275	1.002
17	4104	5.233377946275	1.002
17	4187	5.263377946275	1.002
17	4229	5.293377946275	1.002
17	4275	5.323377946275	1.002
17	4282	5.353377946275	1.002
17	4362	5.383377946275	1.002
17	4408	5.413377946275	1.002
17	4412	5.443377946275	1.002
17	4495	5.473377946275	1.002
17	4541	5.503377946275	1.002
17	4545	5.533377946275	1.002
17	4628	5.563377946275	1.002
17	4670	5.593377946275	1.002
17	4716	5.623377946275	1.002
17	4723	5.653377946275	1.002
17	4803	5.683377946275	1.002
17	4849	5.713377946275	1.002
17	4853	5.743377946275	1.002
17	4936	5.773377946275	1.002
17	4982	5.803377946275	1.002
17	4986	5.833377946275	1.002
17	5069	5.863377946275	1.002
17	5111	5.893377946275	1.002
17	5157	5.923377946275	1.002
17	5164	5.953377946275	1.002
17	5244	5.983377946275	1.002
17	5290	6.013377946275	1.002
17	5294	6.043377946275	1.002
17	5377	6.073377946275	1.002
17	5423	6.103377946275	1.002
17	5427	6.133377946275	1.002
17	5535	6.163377946275	1.002
17	5589	6.193377946275	1.002
17	5648	6.223377946275	1.002
17	5656	6.253377946275	1.002
17	5760	6.283377946275	1.002
17	5819	6.313377946275	1.002
17	5823	6.343377946275	1.002
17	5921	6.373377946275	1.002
17	5980	6.403377946275	1.002
17	5984	6.433377946275	1.002
17	6082	6.463377946275	1.002
17	6136	6.493377946275	1.002
17	6195	6.523377946275	1.002
17	6205	6.553377946275	1.002
17	6361	6.583377946275	1.002
17	6422	6.613377946275	1.002
17	6428	6.643377946275	1.002
17	6613	6.673377946275	1.002
17	6674	6.703377946275	1.002
17	6680	6.733377946275	1.002
17	6845	6.763377946275	1.002
17	6926	6.793377946275	1.002
17	6987	6.823377946275	1.002
17	6997	6.853377946275	1.002
17	7168	6.883377946275	1.002
17	7229	6.913377946275	1.002
17	7235	6.943377946275	1.002
17	7400	6.973377946275	1.002
17	7461	7.003377946275	1.002
17	7467	7.033377946275	1.002
17	7632	7.063377946275	1.002
17	7713	7.093377946275	1.002
17	7774	7.123377946275	1.002
17	7784	7.153377946275	1.002
17	7955	7.183377946275	1.002
17	8016	7.213377946275	1.002
17	8022	7.243377946275	1.002
17	8187	7.273377946275	1.002
17	8248	7.303377946275	1.002
17	8254	7.333377946275	1.002
17	8429	7.363377946275	1.002
17	8510	7.393377946275	1.002
17	8571	7.423377946275	1.002
17	8581	7.453377946275	1.002
17	8752	7.483377946275	1.002
17	8813	7.513377946275	1.002
17	8819	7.543377946275	1.002
17	8994	7.573377946275	1.002
17	9055	7.603377946275	1.002
17	9061	7.633377946275	1.002
17	9236	7.663377946275	1.002
17	9317	7.693377946275	1.002
17	9378	7.723377946275	1.002
17	9388	7.753377946275	1.002
17	9569	7.783377946275	1.002
17	9630	7.813377946275	1.002
17	9636	7.843377946275	1.002
17	9821	7.873377946275	1.002
17	9882	7.903377946275	1.002
17	9888	7.933377946275	1.002
17	10053	7.963377946275	1.002
17	10134	7.993377946275	1.002
17	10195	8.023377946275	1.002
17	10205	8.053377946275	1.002
17	10376	8.083377946275	1.002
17	10437	8.113377946275	1.002
17	10443	8.143377946275	1.002
17	10611	8.173377946275	1.002
17	10672	8.203377946275	1.002
17	10678	8.233377946275	1.002
17	10853	8.263377946275	1.002
17	10934	8.293377946275	1.002
17	10995	8.323377946275	1.002
17	11005	8.353377946275	1.002
17	11176	8.383377946275	1.002
17	11237	8.413377946275	1.002
17	11243	8.443377946275	1.002
17	11418	8.473377946275	1.002
17	11479	8.503377946275	1.002
17	11485	8.533377946275	1.002
17	11660	8.563377946275	1.002
17	11741	8.593377946275	1.002
17	11802	8.623377946275	1.002
17	11812	8.653377946275	1.002
17	11973	8.683377946275	1.002
17	12034	8.713377946275	1.002
17	12040	8.743377946275	1.002
17	12215	8.773377946275	1.002
17	12276	8.803377946275	1.002
17	12282	8.833377946275	1.002
17	12457	8.863377946275	1.002
17	12538	8.893377946275	1.002
17	12599	8.923377946275	1.002
17	12609	8.953377946275	1.002
17	12790	8.983377946275	1.002
17	12851	9.013377946275	1.002
17	12857	9.043377946275	1.002
17	13032	9.073377946275	1.002
17	13093	9.103377946275	1.002
17	13099	9.133377946275	1.002
17	13315	9.163377946275	1.002
17	13447	9.193377946275	1.002
17	13554	9.223377946275	1.002
17	13567	9.253377946275	1.002
17	13841	9.283377946275	1.002
17	13948	9.313377946275	1.002
17	13956	9.343377946275	1.002
17	14210	9.373377946275	1.002
17	14317	9.403377946275	1.002
17	14325	9.433377946275	1.002
17	14583	9.463377946275	1.002
17	14715	9.493377946275	1.002
17	14822	9.523377946275	1.002
17	14835	9.553377946275	1.002
17	15088	9.583377946275	1.002
17	15195	9.613377946275	1.002
17	15203	9.643377946275	1.002
17	15482	9.673377946275	1.002
17	15589	9.703377946275	1.002
17	15597	9.733377946275	1.002
17	15854	9.763377946275	1.002
17	15986	9.793377946275	1.002
17	16093	9.823377946275	1.002
17	16106	9.853377946275	1.002
17	16380	9.883377946275	1.002
17	16487	9.913377946275	1.002
17	16495	9.943377946275	1.002
17	16749	9.973377946275	1.002
17	16856	10.003377946275	1.002
17	16864	10.033377946275	1.002
17	17130	10.063377946275	1.002
17	17262	10.093377946275	1.002
17	17369	10.123377946275	1.002
17	17382	10.153377946275	1.002
17	17643	10.183377946275	1.002
17	17750	10.213377946275	1.002
17	17758	10.243377946275	1.002
17	18024	10.273377946275	1.002
17	18131	10.303377946275	1.002
17	18139	10.333377946275	1.002
17	18396	10.363377946275	1.002
17	18528	10.393377946275	1.002
17	18635	10.423377946275	1.002
17	18648	10.453377946275	1.002
17	18909	10.483377946275	1.002
17	19016	10.513377946275	1.002
17	19024	10.543377946275	1.002
17	19294	10.573377946275	1.002
17	19401	10.603377946275	1.002
17	19409	10.633377946275	1.002
17	19666	10.663377946275	1.002
17	19798	10.693377946275	1.002
17	19905	10.723377946275	1.002
17	19918	10.753377946275	1.002
17	20192	10.783377946275	1.002
17	20299	10.813377946275	1.002
17	20307	10.843377946275	1.002
17	20573	10.873377946275	1.002
17	20680	10.903377946275	1.002
17	20688	10.933377946275	1.002
17	20945	10.963377946275	1.002
17	21077	10.993377946275	1.002
17	21184	11.023377946275	1.002
17	21197	11.053377946275	1.002
17	21471	11.083377946275	1.002
17	21578	11.113377946275	1.002
17	21586	11.143377946275	1.002
17	21843	11.173377946275	1.002
17	21950	11.203377946275	1.002
17	21958	11.233377946275	1.002
17	22215	11.263377946275	1.002
17	22347	11.293377946275	1.002
17	22454	11.323377946275	1.002
17	22467	11.353377946275	1.002
17	22732	11.383377946275	1.002
17	22839	11.413377946275	1.002
17	22847	11.443377946275	1.002
17	23104	11.473377946275	1.002
17	23211	11.503377946275	1.002
17	23219	11.533377946275	1.002
17	23489	11.563377946275	1.002
17	23621	11.593377946275	1.002
17	23728	11.623377946275	1.002
17	23741	11.653377946275	1.002
17	24006	11.683377946275	1.002
17	24113	11.713377946275	1.002
17	24121	11.743377946275	1.002
17	24391	11.773377946275	1.002
17	24498	11.803377946275	1.002
17	24506	11.833377946275	1.002
17	24772	11.863377946275	1.002
17	24904	11.893377946275	1.002
17	25011	11.923377946275	1.002
17	25024	11.953377946275	1.002
17	25289	11.983377946275	1.002
17	25396	12.013377946275	1.002
17	25404	12.043377946275	1.002
17	25657	12.073377946275	1.002
17	25764	12.103377946275	1.002
17	25772	12.133377946275	1.002
17	26088	12.163377946275	1.002
17	26244	12.193377946275	1.002
17	26370	12.223377946275	1.002
17	26384	12.253377946275	1.002
17	26709	12.283377946275	1.002
17	26835	12.313377946275	1.002
17	26843	12.343377946275	1.002
17	27158	12.373377946275	1.002
17	27284	12.403377946275	1.002
17	27292	12.433377946275	1.002
17	27607	12.463377946275	1.002
17	27763	12.493377946275	1.002
17	27889	12.523377946275	1.002
17	27903	12.553377946275	1.002
17	28228	12.583377946275	1.002
17	28354	12.613377946275	1.002
17	28362	12.643377946275	1.002
17	28693	12.673377946275	1.002
17	28819	12.703377946275	1.002
17	28827	12.733377946275	1.002
17	29143	12.763377946275	1.002
17	29299	12.793377946275	1.002
17	29425	12.823377946275	1.002
17	29439	12.853377946275	1.002
17	29787	12.883377946275	1.002
17	29915	12.913377946275	1.002
17	29925	12.943377946275	1.002
17	30347	12.973377946275	1.002
17	30512	13.003377946275	1.002
17	30522	13.033377946275	1.002
17	30898	13.063377946275	1.002
17	31093	13.093377946275	1.002
17	31221	13.123377946275	1.002
17	31237	13.153377946275	1.002
17	31648	13.183377946275	1.002
17	31776	13.213377946275	1.002
17	31786	13.243377946275	1.002
17	32203	13.273377946275	1.002
17	32368	13.303377946275	1.002
17	32378	13.333377946275	1.002
17	32753	13.363377946275	1.002
17	32948	13.393377946275	1.002
17	33076	13.423377946275	1.002
17	33092	13.453377946275	1.002
17	33515	13.483377946275	1.002
17	33643	13.513377946275	1.002
17	33653	13.543377946275	1.002
17	34081	13.573377946275	1.002
17	34246	13.603377946275	1.002
17	34256	13.633377946275	1.002
17	34636	13.663377946275	1.002
17	34831	13.693377946275	1.002
17	34959	13.723377946275	1.002
17	34975	13.753377946275	1.002
17	35386	13.783377946275	1.002
17	35514	13.813377946275	1.002
17	35524	13.843377946275	1.002
17	35936	13.873377946275	1.002
17	36101	13.903377946275	1.002
17	36111	13.933377946275	1.002
17	36491	13.963377946275	1.002
17	36686	13.993377946275	1.002
17	36814	14.023377946275	1.002
17	36830	14.053377946275	1.002
17	37252	14.083377946275	1.002
17	37380	14.113377946275	1.002
17	37390	14.143377946275	1.002
17	37823	14.173377946275	1.002
17	37988	14.203377946275	1.002
17	37998	14.233377946275	1.002
17	38362	14.263377946275	1.002
17	38557	14.293377946275	1.002
17	38685	14.323377946275	1.002
17	38701	14.353377946275	1.002
17	39139	14.383377946275	1.002
17	39267	14.413377946275	1.002
17	39277	14.443377946275	1.002
17	39672	14.473377946275	1.002
17	39837	14.503377946275	1.002
17	39847	14.533377946275	1.002
17	40238	14.563377946275	1.002
17	40433	14.593377946275	1.002
17	40561	14.623377946275	1.002
17	40577	14.653377946275	1.002
17	41015	14.683377946275	1.002
17	41143	14.713377946275	1.002
17	41153	14.743377946275	1.002
17	41549	14.773377946275	1.002
17	41714	14.803377946275	1.002
17	41724	14.833377946275	1.002
17	42082	14.863377946275	1.002
17	42277	14.893377946275	1.002
17	42405	14.923377946275	1.002
17	42421	14.953377946275	1.002
17	42832	14.983377946275	1.002
17	42960	15.013377946275	1.002
17	42970	15.043377946275	1.002
17	43360	15.073377946275	1.002
17	43525	15.103377946275	1.002
17	43535	15.133377946275	1.002
17	43915	15.163377946275	1.002
17	44110	15.193377946275	1.002
17	44238	15.223377946275	1.002
17	44254	15.253377946275	1.002
17	44660	15.283377946275	1.002
17	44788	15.313377946275	1.002
17	44798	15.343377946275	1.002
17	45199	15.373377946275	1.002
17	45364	15.403377946275	1.002
17	45374	15.433377946275	1.002
17	45749	15.463377946275	1.002
17	45944	15.493377946275	1.002
17	46072	15.523377946275	1.002
17	46088	15.553377946275	1.002
17	46504	15.583377946275	1.002
17	46632	15.613377946275	1.002
17	46642	15.643377946275	1.002
17	47064	15.673377946275	1.002
17	47229	15.703377946275	1.002
17	47239	15.733377946275	1.002
17	47603	15.763377946275	1.002
17	47798	15.793377946275	1.002
17	47926	15.823377946275	1.002
17	47942	15.853377946275	1.002
17	48337	15.883377946275	1.002
17	48465	15.913377946275	1.002
17	48475	15.943377946275	1.002
17	48892	15.973377946275	1.002
17	49057	16.003377946275	1.002
17	49067	16.033377946275	1.002
17	49447	16.063377946275	1.002
17	49642	16.093377946275	1.002
17	49770	16.123377946275	1.002
17	49786	16.153377946275	1.002
17	50197	16.183377946275	1.002
17	50325	16.213377946275	1.002
17	50335	16.243377946275	1.002
17	50741	16.273377946275	1.002
17	50906	16.303377946275	1.002
17	50916	16.333377946275	1.002
17	51269	16.363377946275	1.002
17	51464	16.393377946275	1.002
17	51592	16.423377946275	1.002
17	51608	16.453377946275	1.002
17	52030	16.483377946275	1.002
17	52158	16.513377946275	1.002
17	52168	16.543377946275	1.002
17	52580	16.573377946275	1.002
17	52745	16.603377946275	1.002
17	52755	16.633377946275	1.002
17	53108	16.663377946275	1.002
17	53303	16.693377946275	1.002
17	53431	16.723377946275	1.002
17	53447	16.753377946275	1.002
17	53874	16.783377946275	1.002
17	54002	16.813377946275	1.002
17	54012	16.843377946275	1.002
17	54440	16.873377946275	1.002
17	54605	16.903377946275	1.002
17	54615	16.933377946275	1.002
17	54979	16.963377946275	1.002
17	55174	16.993377946275	1.002
17	55302	17.023377946275	1.002
17	55318	17.053377946275	1.002
17	55740	17.083377946275	1.002
17	55868	17.113377946275	1.002
17	55878	17.143377946275	1.002
17	56290	17.173377946275	1.002
17	56455	17.203377946275	1.002
17	56465	17.233377946275	1.002
17	56845	17.263377946275	1.002
17	57040	17.293377946275	1.002
17	57168	17.323377946275	1.002
17	57184	17.353377946275	1.002
17	57595	17.383377946275	1.002
17	57723	17.413377946275	1.002
17	57733	17.443377946275	1.002
17	58129	17.473377946275	1.002
17	58294	17.503377946275	1.002
17	58304	17.533377946275	1.002
17	58657	17.563377946275	1.002
17	58852	17.593377946275	1.002
17	58980	17.623377946275	1.002
17	58996	17.653377946275	1.002
17	59434	17.683377946275	1.002
17	59562	17.713377946275	1.002
17	59572	17.743377946275	1.002
17	60000	17.773377946275	1.002
17	60165	17.803377946275	1.002
17	60175	17.833377946275	1.002
17	60534	17.863377946275	1.002
17	60729	17.893377946275	1.002
17	60857	17.923377946275	1.002
17	60873	17.953377946275	1.002
17	61295	17.983377946275	1.002
17	61423	18.013377946275	1.002
17	61433	18.043377946275	1.002
17	61829	18.073377946275	1.002
17	61994	18.103377946275	1.002
17	62004	18.133377946275	1.002
17	62373	18.163377946275	1.002
17	62568	18.193377946275	1.002
17	62696	18.223377946275	1.002
17	62712	18.253377946275	1.002
17	63150	18.283377946275	1.002
17	63278	18.313377946275	1.002
17	63288	18.343377946275	1.002
17	63700	18.373377946275	1.002
17	63865	18.403377946275	1.002
17	63875	18.433377946275	1.002
17	64228	18.463377946275	1.002
17	64423	18.493377946275	1.002
17	64551	18.523377946275	1.002
17	64567	18.553377946275	1.002
17	65005	18.583377946275	1.002
17	65133	18.613377946275	1.002
17	65143	18.643377946275	1.002
17	65555	18.673377946275	1.002
17	65720	18.703377946275	1.002
17	65730	18.733377946275	1.002
17	66105	18.763377946275	1.002
17	66300	18.793377946275	1.002
17	66428	18.823377946275	1.002
17	66444	18.853377946275	1.002
17	66866	18.883377946275	1.002
17	66994	18.913377946275	1.002
17	67004	18.943377946275	1.002
17	67416	18.973377946275	1.002
17	67581	19.003377946275	1.002
17	67591	19.033377946275	1.002
17	67944	19.063377946275	1.002
17	68139	19.093377946275	1.002
17	68267	19.123377946275	1.002
17	68283	19.153377946275	1.002
17	68689	19.183377946275	1.002
17	68817	19.213377946275	1.002
17	68827	19.243377946275	1.002
17	69244	19.273377946275	1.002
17	69409	19.303377946275	1.002
17	69419	19.333377946275	1.002
17	69772	19.363377946275	1.002
17	69967	19.393377946275	1.002
17	70095	19.423377946275	1.002
17	70111	19.453377946275	1.002
17	70533	19.483377946275	1.002
17	70661	19.513377946275	1.002
17	70671	19.543377946275	1.002
17	71072	19.573377946275	1.002
17	71237	19.603377946275	1.002
17	71247	19.633377946275	1.002
17	71654	19.663377946275	1.002
17	71849	19.693377946275	1.002
17	71977	19.723377946275	1.002
17	71993	19.753377946275	1.002
17	72415	19.783377946275	1.002
17	72543	19.813377946275	1.002
17	72553	19.843377946275	1.002
17	72949	19.873377946275	1.002
17	73114	19.903377946275	1.002
17	73124	19.933377946275	1.002
17	73488	19.963377946275	1.002
17	73683	19.993377946275	1.002
17	73811	20.023377946275	1.002
17	73827	20.053377946275	1.002
17	74238	20.083377946275	1.002
17	74366	20.113377946275	1.002
17	74376	20.143377946275	1.002
17	74766	20.173377946275	1.002
17	74931	20.203377946275	1.002
17	74941	20.233377946275	1.002
17	75332	20.263377946275	1.002
17	75527	20.293377946275	1.002
17	75655	20.323377946275	1.002
17	75671	20.353377946275	1.002
17	76077	20.383377946275	1.002
17	76205	20.413377946275	1.002
17	76215	20.443377946275	1.002
17	76621	20.473377946275	1.002
17	76786	20.503377946275	1.002
17	76796	20.533377946275	1.002
17	77187	20.563377946275	1.002
17	77382	20.593377946275	1.002
17	77510	20.623377946275	1.002
17	77526	20.653377946275	1.002
17	77937	20.683377946275	1.002
17	78065	20.713377946275	1.002
17	78075	20.743377946275	1.002
17	78476	20.773377946275	1.002
17	78641	20.803377946275	1.002
17	78651	20.833377946275	1.002
17	79020	20.863377946275	1.002
17	79215	20.893377946275	1.002
17	79343	20.923377946275	1.002
17	79359	20.953377946275	1.002
17	79754	20.983377946275	1.002
17	79882	21.013377946275	1.002
17	79892	21.043377946275	1.002
17	80309	21.073377946275	1.002
17	80474	21.103377946275	1.002
17	80484	21.133377946275	1.002
17	80853	21.163377946275	1.002
17	81048	21.193377946275	1.002
17	81176	21.223377946275	1.002
17	81192	21.253377946275	1.002
17	81619	21.283377946275	1.002
17	81747	21.313377946275	1.002
17	81757	21.343377946275	1.002
17	82169	21.373377946275	1.002
17	82334	21.403377946275	1.002
17	82344	21.433377946275	1.002
17	82719	21.463377946275	1.002
17	82914	21.493377946275	1.002
17	83042	21.523377946275	1.002
17	83058	21.553377946275	1.002
17	83480	21.583377946275	1.002
17	83608	21.613377946275	1.002
17	83618	21.643377946275	1.002
17	84014	21.673377946275	1.002
17	84179	21.703377946275	1.002
17	84189	21.733377946275	1.002
17	84553	21.763377946275	1.002
17	84748	21.793377946275	1.002
17	84876	21.823377946275	1.002
17	84892	21.853377946275	1.002
17	85298	21.883377946275	1.002
17	85426	21.913377946275	1.002
17	85436	21.943377946275	1.002
17	85848	21.973377946275	1.002
17	86013	22.003377946275	1.002
17	86023	22.033377946275	1.002
17	86382	22.063377946275	1.002
17	86577	22.093377946275	1.002
17	86705	22.123377946275	1.002
17	86721	22.153377946275	1.002
17	87127	22.183377946275	1.002
17	87255	22.213377946275	1.002
17	87265	22.243377946275	1.002
17	87666	22.273377946275	1.002
17	87831	22.303377946275	1.002
17	87841	22.333377946275	1.002
17	88205	22.363377946275	1.002
17	88400	22.393377946275	1.002
17	88528	22.423377946275	1.002
17	88544	22.453377946275	1.002
17	88982	22.483377946275	1.002
17	89110	22.513377946275	1.002
17	89120	22.543377946275	1.002
17	89526	22.573377946275	1.002
17	89691	22.603377946275	1.002
17	89701	22.633377946275	1.002
17	90081	22.663377946275	1.002
17	90276	22.693377946275	1.002
17	90404	22.723377946275	1.002
17	90420	22.753377946275	1.002
17	90842	22.783377946275	1.002
17	90970	22.813377946275	1.002
17	90980	22.843377946275	1.002
17	91376	22.873377946275	1.002
17	91541	22.903377946275	1.002
17	91551	22.933377946275	1.002
17	91926	22.963377946275	1.002
17	92121	22.993377946275	1.002
17	92249	23.023377946275	1.002
17	92265	23.053377946275	1.002
17	92676	23.083377946275	1.002
17	92804	23.113377946275	1.002
17	92814	23.143377946275	1.002
17	93226	23.173377946275	1.002
17	93391	23.203377946275	1.002
17	93401	23.233377946275	1.002
17	93776	23.263377946275	1.002
17	93971	23.293377946275	1.002
17	94099	23.323377946275	1.002
17	94115	23.353377946275	1.002
17	94499	23.383377946275	1.002
17	94627	23.413377946275	1.002
17	94637	23.443377946275	1.002
17	95043	23.473377946275	1.002
17	95208	23.503377946275	1.002
17	95218	23.533377946275	1.002
17	95598	23.563377946275	1.002
17	95793	23.593377946275	1.002
17	95921	23.623377946275	1.002
17	95937	23.653377946275	1.002
17	96348	23.683377946275	1.002
17	96476	23.713377946275	1.002
17	96486	23.743377946275	1.002
17	96898	23.773377946275	1.002
17	97063	23.803377946275	1.002
17	97073	23.833377946275	1.002
17	97448	23.863377946275	1.002
17	97643	23.893377946275	1.002
17	97771	23.923377946275	1.002
17	97787	23.953377946275	1.002
17	98193	23.983377946275	1.002
17	98321	24.013377946275	1.002
17	98331	24.043377946275	1.002
17	98737	24.073377946275	1.002
17	98902	24.103377946275	1.002
17	98912	24.133377946275	1.002
17	99276	24.163377946275	1.002
17	99471	24.193377946275	1.002
17	99599	24.223377946275	1.002
17	99615	24.253377946275	1.002
17	100015	24.283377946275	1.002
17	100143	24.313377946275	1.002
17	100153	24.343377946275	1.002
17	100570	24.373377946275	1.002
17	100735	24.403377946275	1.002
17	100745	24.433377946275	1.002
17	101120	24.463377946275	1.002
17	101315	24.493377946275	1.002
17	101443	24.523377946275	1.002
17	101459	24.553377946275	1.002
17	101881	24.583377946275	1.002
17	102009	24.613377946275	1.002
17	102019	24.643377946275	1.002
17	102436	24.673377946275	1.002
17	102601	24.703377946275	1.002
17	102611	24.733377946275	1.002
17	102975	24.763377946275	1.002
17	103170	24.793377946275	1.002
17	103298	24.823377946275	1.002
17	103314	24.853377946275	1.002
17	103736	24.883377946275	1.002
17	103864	24.913377946275	1.002
17	103874	24.943377946275	1.002
17	104291	24.973377946275	1.002
17	104456	25.003377946275	1.002
17	104466	25.033377946275	1.002
17	104840	25.063377946275	1.002
17	105035	25.093377946275	1.002
17	105163	25.123377946275	1.002
17	105179	25.153377946275	1.002
17	105585	25.183377946275	1.002
17	105713	25.213377946275	1.002
17	105723	25.243377946275	1.002
17	106135	25.273377946275	1.002
17	106300	25.303377946275	1.002
17	106310	25.333377946275	1.002
17	106701	25.363377946275	1.002
17	106896	25.393377946275	1.002
17	107024	25.423377946275	1.002
17	107040	25.453377946275	1.002
17	107451	25.483377946275	1.002
17	107579	25.513377946275	1.002
17	107589	25.543377946275	1.002
17	107990	25.573377946275	1.002
17	108155	25.603377946275	1.002
17	108165	25.633377946275	1.002
17	108518	25.663377946275	1.002
17	108713	25.693377946275	1.002
17	108841	25.723377946275	1.002
17	108857	25.753377946275	1.002
17	109252	25.783377946275	1.002
17	109380	25.813377946275	1.002
17	109390	25.843377946275	1.002
17	109807	25.873377946275	1.002
17	109972	25.903377946275	1.002
17	109982	25.933377946275	1.002
17	110357	25.963377946275	1.002
17	110552	25.993377946275	1.002
17	110680	26.023377946275	1.002
17	110696	26.053377946275	1.002
17	111102	26.083377946275	1.002
17	111230	26.113377946275	1.002
17	111240	26.143377946275	1.002
17	111652	26.173377946275	1.002
17	111817	26.203377946275	1.002
17	111827	26.233377946275	1.002
17	112191	26.263377946275	1.002
17	112386	26.293377946275	1.002
17	112514	26.323377946275	1.002
17	112530	26.353377946275	1.002
17	112952	26.383377946275	1.002
17	113080	26.413377946275	1.002
17	113090	26.443377946275	1.002
17	113491	26.473377946275	1.002
17	113656	26.503377946275	1.002
17	113666	26.533377946275	1.002
17	114062	26.563377946275	1.002
17	114257	26.593377946275	1.002
17	114385	26.623377946275	1.002
17	114401	26.653377946275	1.002
17	114812	26.683377946275	1.002
17	114940	26.713377946275	1.002
17	114950	26.743377946275	1.002
17	115351	26.773377946275	1.002
17	115516	26.803377946275	1.002
17	115526	26.833377946275	1.002
17	115890	26.863377946275	1.002
17	116085	26.893377946275	1.002
17	116213	26.923377946275	1.002
17	116229	26.953377946275	1.002
17	116651	26.983377946275	1.002
17	116779	27.013377946275	1.002
17	116789	27.043377946275	1.002
17	117190	27.073377946275	1.002
17	117355	27.103377946275	1.002
17	117365	27.133377946275	1.002
17	117745	27.163377946275	1.002
17	117940	27.193377946275	1.002
17	118068	27.223377946275	1.002
17	118084	27.253377946275	1.002
17	118484	27.283377946275	1.002
17	118612	27.313377946275	1.002
17	118622	27.343377946275	1.002
17	119023	27.373377946275	1.002
17	119188	27.403377946275	1.002
17	119198	27.433377946275	1.002
17	119567	27.463377946275	1.002
17	119762	27.493377946275	1.002
17	119890	27.523377946275	1.002
17	119906	27.553377946275	1.002
17	120328	27.583377946275	1.002
17	120456	27.613377946275	1.002
17	120466	27.643377946275	1.002
17	120883	27.673377946275	1.002
17	121048	27.703377946275	1.002
17	121058	27.733377946275	1.002
17	121433	27.763377946275	1.002
17	121628	27.793377946275	1.002
17	121756	27.823377946275	1.002
17	121772	27.853377946275	1.002
17	122194	27.883377946275	1.002
17	122322	27.913377946275	1.002
17	122332	27.943377946275	1.002
17	122733	27.973377946275	1.002
17	122898	28.003377946275	1.002
17	122908	28.033377946275	1.002
17	123283	28.063377946275	1.002
17	123478	28.093377946275	1.002
17	123606	28.123377946275	1.002
17	123622	28.153377946275	1.002
17	124044	28.183377946275	1.002
17	124172	28.213377946275	1.002
17	124182	28.243377946275	1.002
17	124583	28.273377946275	1.002
17	124748	28.303377946275	1.002
17	124758	28.333377946275	1.002
17	125122	28.363377946275	1.002
17	125317	28.393377946275	1.002
17	125445	28.423377946275	1.002
17	125461	28.453377946275	1.002
17	125883	28.483377946275	1.002
17	126011	28.513377946275	1.002
17	126021	28.543377946275	1.002
17	126422	28.573377946275	1.002
17	126587	28.603377946275	1.002
17	126597	28.633377946275	1.002
17	126972	28.663377946275	1.002
17	127167	28.693377946275	1.002
17	127295	28.723377946275	1.002
17	127311	28.753377946275	1.002
17	127733	28.783377946275	1.002
17	127861	28.813377946275	1.002
17	127871	28.843377946275	1.002
17	128283	28.873377946275	1.002
17	128448	28.903377946275	1.002
17	128458	28.933377946275	1.002
17	128838	28.963377946275	1.002
17	129033	28.993377946275	1.002
17	129161	29.023377946275	1.002
17	129177	29.053377946275	1.002
17	129588	29.083377946275	1.002
17	129716	29.113377946275	1.002
17	129726	29.143377946275	1.002
17	130122	29.173377946275	1.002
17	130287	29.203377946275	1.002
17	130297	29.233377946275	1.002
17	130645	29.263377946275	1.002
17	130840	29.293377946275	1.002
17	130968	29.323377946275	1.002
17	130984	29.353377946275	1.002
17	131406	29.383377946275	1.002
17	131534	29.413377946275	1.002
17	131544	29.443377946275	1.002
17	131945	29.473377946275	1.002
17	132110	29.503377946275	1.002
17	132120	29.533377946275	1.002
17	132484	29.563377946275	1.002
17	132679	29.593377946275	1.002
17	132807	29.623377946275	1.002
17	132823	29.653377946275	1.002
17	133218	29.683377946275	1.002
17	133346	29.713377946275	1.002
17	133356	29.743377946275	1.002
17	133746	29.773377946275	1.002
17	133911	29.803377946275	1.002
17	133921	29.833377946275	1.002
17	134301	29.863377946275	1.002
17	134496	29.893377946275	1.002
17	134624	29.923377946275	1.002
17	134640	29.953377946275	1.002
17	135046	29.983377946275	1.002
17	135174	30.013377946275	1.002
17	135184	30.043377946275	1.002
17	135601	30.073377946275	1.002
17	135766	30.103377946275	1.002
17	135776	30.133377946275	1.002
17	136151	30.163377946275	1.002
17	136346	30.193377946275	1.002
17	136474	30.223377946275	1.002
17	136490	30.253377946275	1.002
17	136912	30.283377946275	1.002
17	137040	30.313377946275	1.002
17	137050	30.343377946275	1.002
17	137446	30.373377946275	1.002
17	137611	30.403377946275	1.002
17	137621	30.433377946275	1.002
17	138001	30.463377946275	1.002
17	138196	30.493377946275	1.002
17	138324	30.523377946275	1.002
17	138340	30.553377946275	1.002
17	138746	30.583377946275	1.002
17	138874	30.613377946275	1.002
17	138884	30.643377946275	1.002
17	139312	30.673377946275	1.002
17	139477	30.703377946275	1.002
17	139487	30.733377946275	1.002
17	139878	30.763377946275	1.002
17	140073	30.793377946275	1.002
17	140201	30.823377946275	1.002
17	140217	30.853377946275	1.002
17	140639	30.883377946275	1.002
17	140767	30.913377946275	1.002
17	140777	30.943377946275	1.002
17	141178	30.973377946275	1.002
17	141343	31.003377946275	1.002
17	141353	31.033377946275	1.002
17	141733	31.063377946275	1.002
17	141928	31.093377946275	1.002
17	142056	31.123377946275	1.002
17	142072	31.153377946275	1.002
17	142478	31.183377946275	1.002
17	142606	31.213377946275	1.002
17	142616	31.243377946275	1.002
17	143044	31.273377946275	1.002
17	143209	31.303377946275	1.002
17	143219	31.333377946275	1.002
17	143599	31.363377946275	1.002
17	143794	31.393377946275	1.002
17	143922	31.423377946275	1.002
17	143938	31.453377946275	1.002
17	144333	31.483377946275	1.002
17	144461	31.513377946275	1.002
17	144471	31.543377946275	1.002
17	144883	31.573377946275	1.002
17	145048	31.603377946275	1.002
17	145058	31.633377946275	1.002
17	145422	31.663377946275	1.002
17	145617	31.693377946275	1.002
17	145745	31.723377946275	1.002
17	145761	31.753377946275	1.002
17	146172	31.783377946275	1.002
17	146300	31.813377946275	1.002
17	146310	31.843377946275	1.002
17	146727	31.873377946275	1.002
17	146892	31.903377946275	1.002
17	146902	31.933377946275	1.002
17	147266	31.963377946275	1.002
17	147461	31.993377946275	1.002
17	147589	32.023377946275	1.002
17	147605	32.053377946275	1.002
17	148011	32.083377946275	1.002
17	148139	32.113377946275	1.002
17	148149	32.143377946275	1.002
17	148550	32.173377946275	1.002
17	148715	32.203377946275	1.002
17	148725	32.233377946275	1.002
17	149089	32.263377946275	1.002
17	149284	32.293377946275	1.002
17	149412	32.323377946275	1.002
17	149428	32.353377946275	1.002
17	149844	32.383377946275	1.002
17	149972	32.413377946275	1.002
17	149982	32.443377946275	1.002
17	150383	32.473377946275	1.002
17	150548	32.503377946275	1.002
17	150558	32.533377946275	1.002
17	150922	32.563377946275	1.002
17	151117	32.593377946275	1.002
17	151245	32.623377946275	1.002
17	151261	32.653377946275	1.002
17	151683	32.683377946275	1.002
17	151811	32.713377946275	1.002
17	151821	32.743377946275	1.002
17	152238	32.773377946275	1.002
17	152403	32.803377946275	1.002
17	152413	32.833377946275	1.002
17	152782	32.863377946275	1.002
17	152977	32.893377946275	1.002
17	153105	32.923377946275	1.002
17	153121	32.953377946275	1.002
17	153527	32.983377946275	1.002
17	153655	33.013377946275	1.002
17	153665	33.043377946275	1.002
17	154077	33.073377946275	1.002
17	154242	33.103377946275	1.002
17	154252	33.133377946275	1.002
17	154627	33.163377946275	1.002
17	154822	33.193377946275	1.002
17	154950	33.223377946275	1.002
17	154966	33.253377946275	1.002
17	155377	33.283377946275	1.002
17	155505	33.313377946275	1.002
17	155515	33.343377946275	1.002
17	155959	33.373377946275	1.002
17	156124	33.403377946275	1.002
17	156134	33.433377946275	1.002
17	156509	33.463377946275	1.002
17	156704	33.493377946275	1.002
17	156832	33.523377946275	1.002
17	156848	33.553377946275	1.002
17	157275	33.583377946275	1.002
17	157403	33.613377946275	1.002
17	157413	33.643377946275	1.002
17	157814	33.673377946275	1.002
17	157979	33.703377946275	1.002
17	157989	33.733377946275	1.002
17	158380	33.763377946275	1.002
17	158575	33.793377946275	1.002
17	158703	33.823377946275	1.002
17	158719	33.853377946275	1.002
17	159146	33.883377946275	1.002
17	159274	33.913377946275	1.002
17	159284	33.943377946275	1.002
17	159701	33.973377946275	1.002
17	159866	34.003377946275	1.002
17	159876	34.033377946275	1.002
17	160256	34.063377946275	1.002
17	160451	34.093377946275	1.002
17	160579	34.123377946275	1.002
17	160595	34.153377946275	1.002
17	161006	34.183377946275	1.002
17	161134	34.213377946275	1.002
17	161144	34.243377946275	1.002
17	161556	34.273377946275	1.002
17	161721	34.303377946275	1.002
17	161731	34.333377946275	1.002
17	162095	34.363377946275	1.002
17	162290	34.393377946275	1.002
17	162418	34.423377946275	1.002
17	162434	34.453377946275	1.002
17	162840	34.483377946275	1.002
17	162968	34.513377946275	1.002
17	162978	34.543377946275	1.002
17	163406	34.573377946275	1.002
17	163571	34.603377946275	1.002
17	163581	34.633377946275	1.002
17	163961	34.663377946275	1.002
17	164156	34.693377946275	1.002
17	164284	34.723377946275	1.002
17	164300	34.753377946275	1.002
17	164711	34.783377946275	1.002
17	164839	34.813377946275	1.002
17	164849	34.843377946275	1.002
17	165261	34.873377946275	1.002
17	165426	34.903377946275	1.002
17	165436	34.933377946275	1.002
17	165805	34.963377946275	1.002
17	166000	34.993377946275	1.002
17	166128	35.023377946275	1.002
17	166144	35.053377946275	1.002
17	166555	35.083377946275	1.002
17	166683	35.113377946275	1.002
17	166693	35.143377946275	1.002
17	167099	35.173377946275	1.002
17	167264	35.203377946275	1.002
17	167274	35.233377946275	1.002
17	167665	35.263377946275	1.002
17	167860	35.293377946275	1.002
17	167988	35.323377946275	1.002
17	168004	35.353377946275	1.002
17	168415	35.383377946275	1.002
17	168543	35.413377946275	1.002
17	168553	35.443377946275	1.002
17	168986	35.473377946275	1.002
17	169151	35.503377946275	1.002
17	169161	35.533377946275	1.002
17	169525	35.563377946275	1.002
17	169720	35.593377946275	1.002
17	169848	35.623377946275	1.002
17	169864	35.653377946275	1.002
17	170259	35.683377946275	1.002
17	170387	35.713377946275	1.002
17	170397	35.743377946275	1.002
17	170814	35.773377946275	1.002
17	170979	35.803377946275	1.002
17	170989	35.833377946275	1.002
17	171353	35.863377946275	1.002
17	171548	35.893377946275	1.002
17	171676	35.923377946275	1.002
17	171692	35.953377946275	1.002
17	172098	35.983377946275	1.002
17	172226	36.013377946275	1.002
17	172236	36.043377946275	1.002
17	172653	36.073377946275	1.002
17	172818	36.103377946275	1.002
17	172828	36.133377946275	1.002
17	173192	36.163377946275	1.002
17	173387	36.193377946275	1.002
17	173515	36.223377946275	1.002
17	173531	36.253377946275	1.002
17	173926	36.283377946275	1.002
17	174054	36.313377946275	1.002
17	174064	36.343377946275	1.002
17	174476	36.373377946275	1.002
17	174641	36.403377946275	1.002
17	174651	36.433377946275	1.002
17	175026	36.463377946275	1.002
17	175221	36.493377946275	1.002
17	175349	36.523377946275	1.002
17	175365	36.553377946275	1.002
17	175771	36.583377946275	1.002
17	175899	36.613377946275	1.002
17	175909	36.643377946275	1.002
17	176326	36.673377946275	1.002
17	176491	36.703377946275	1.002
17	176501	36.733377946275	1.002
17	176881	36.763377946275	1.002
17	177076	36.793377946275	1.002
17	177204	36.823377946275	1.002
17	177220	36.853377946275	1.002
17	177642	36.883377946275	1.002
17	177770	36.913377946275	1.002
17	177780	36.943377946275	1.002
17	178186	36.973377946275	1.002
17	178351	37.003377946275	1.002
17	178361	37.033377946275	1.002
17	178725	37.063377946275	1.002
17	178920	37.093377946275	1.002
17	179048	37.123377946275	1.002
17	179064	37.153377946275	1.002
17	179486	37.183377946275	1.002
17	179614	37.213377946275	1.002
17	179624	37.243377946275	1.002
17	180041	37.273377946275	1.002
17	180206	37.303377946275	1.002
17	180216	37.333377946275	1.002
17	180591	37.363377946275	1.002
17	180786	37.393377946275	1.002
17	180914	37.423377946275	1.002
17	180930	37.453377946275	1.002
17	181341	37.483377946275	1.002
17	181469	37.513377946275	1.002
17	181479	37.543377946275	1.002
17	181875	37.573377946275	1.002
17	182040	37.603377946275	1.002
17	182050	37.633377946275	1.002
17	182441	37.663377946275	1.002
17	182636	37.693377946275	1.002
17	182764	37.723377946275	1.002
17	182780	37.753377946275	1.002
17	183202	37.783377946275	1.002
17	183330	37.813377946275	1.002
17	183340	37.843377946275	1.002
17	183741	37.873377946275	1.002
17	183906	37.903377946275	1.002
17	183916	37.933377946275	1.002
17	184291	37.963377946275	1.002
17	184486	37.993377946275	1.002
17	184614	38.023377946275	1.002
17	184630	38.053377946275	1.002
17	185030	38.083377946275	1.002
17	185158	38.113377946275	1.002
17	185168	38.143377946275	1.002
17	185585	38.173377946275	1.002
17	185750	38.203377946275	1.002
17	185760	38.233377946275	1.002
17	186135	38.263377946275	1.002
17	186330	38.293377946275	1.002
17	186458	38.323377946275	1.002
17	186474	38.353377946275	1.002
17	186874	38.383377946275	1.002
17	187002	38.413377946275	1.002
17	187012	38.443377946275	1.002
17	187429	38.473377946275	1.002
17	187594	38.503377946275	1.002
17	187604	38.533377946275	1.002
17	187995	38.563377946275	1.002
17	188190	38.593377946275	1.002
17	188318	38.623377946275	1.002
17	188334	38.653377946275	1.002
17	188729	38.683377946275	1.002
17	188857	38.713377946275	1.002
17	188867	38.743377946275	1.002
17	189284	38.773377946275	1.002
17	189449	38.803377946275	1.002
17	189459	38.833377946275	1.002
17	189828	38.863377946275	1.002
17	190023	38.893377946275	1.002
17	190151	38.923377946275	1.002
17	190167	38.953377946275	1.002
17	190573	38.983377946275	1.002
17	190701	39.013377946275	1.002
17	190711	39.043377946275	1.002
17	191112	39.073377946275	1.002
17	191277	39.103377946275	1.002
17	191287	39.133377946275	1.002
17	191662	39.163377946275	1.002
17	191857	39.193377946275	1.002
17	191985	39.223377946275	1.002
17	192001	39.253377946275	1.002
17	192407	39.283377946275	1.002
17	192535	39.313377946275	1.002
17	192545	39.343377946275	1.002
17	192957	39.373377946275	1.002
17	193122	39.403377946275	1.002
17	193132	39.433377946275	1.002
17	193496	39.463377946275	1.002
17	193691	39.493377946275	1.002
17	193819	39.523377946275	1.002
17	193835	39.553377946275	1.002
17	194241	39.583377946275	1.002
17	194369	39.613377946275	1.002
17	194379	39.643377946275	1.002
17	194780	39.673377946275	1.002
17	194945	39.703377946275	1.002
17	194955	39.733377946275	1.002
17	195330	39.763377946275	1.002
17	195525	39.793377946275	1.002
17	195653	39.823377946275	1.002
17	195669	39.853377946275	1.002
17	196080	39.883377946275	1.002
17	196208	39.913377946275	1.002
17	196218	39.943377946275	1.002
17	196619	39.973377946275	1.002
17	196784	40.003377946275	1.002
17	196794	40.033377946275	1.002
17	197169	40.063377946275	1.002
17	197364	40.093377946275	1.002
17	197492	40.123377946275	1.002
17	197508	40.153377946275	1.002
17	197903	40.183377946275	1.002
17	198031	40.213377946275	1.002
17	198041	40.243377946275	1.002
17	198442	40.273377946275	1.002
17	198607	40.303377946275	1.002
17	198617	40.333377946275	1.002
17	198981	40.363377946275	1.002
17	199176	40.393377946275	1.002
17	199304	40.423377946275	1.002
17	199320	40.453377946275	1.002
17	199715	40.483377946275	1.002
17	199843	40.513377946275	1.002
17	199853	40.543377946275	1.002
17	200265	40.573377946275	1.002
17	200430	40.603377946275	1.002
17	200440	40.633377946275	1.002
17	200815	40.663377946275	1.002
17	201010	40.693377946275	1.002
17	201138	40.723377946275	1.002
17	201154	40.753377946275	1.002
17	201581	40.783377946275	1.002
17	201709	40.813377946275	1.002
17	201719	40.843377946275	1.002
17	202131	40.873377946275	1.002
17	202296	40.903377946275	1.002
17	202306	40.933377946275	1.002
17	202702	40.963377946275	1.002
17	202897	40.993377946275	1.002
17	203025	41.023377946275	1.002
17	203041	41.053377946275	1.002
17	203452	41.083377946275	1.002
17	203580	41.113377946275	1.002
17	203590	41.143377946275	1.002
17	203991	41.173377946275	1.002
17	204156	41.203377946275	1.002
17	204166	41.233377946275	1.002
17	204530	41.263377946275	1.002
17	204725	41.293377946275	1.002
17	204853	41.323377946275	1.002
17	204869	41.353377946275	1.002
17	205264	41.383377946275	1.002
17	205392	41.413377946275	1.002
17	205402	41.443377946275	1.002
17	205819	41.473377946275	1.002
17	205984	41.503377946275	1.002
17	205994	41.533377946275	1.002
17	206358	41.563377946275	1.002
17	206553	41.593377946275	1.002
17	206681	41.623377946275	1.002
17	206697	41.653377946275	1.002
17	207124	41.683377946275	1.002
17	207252	41.713377946275	1.002
17	207262	41.743377946275	1.002
17	207674	41.773377946275	1.002
17	207839	41.803377946275	1.002
17	207849	41.833377946275	1.002
17	208224	41.863377946275	1.002
17	208419	41.893377946275	1.002
17	208547	41.923377946275	1.002
17	208563	41.953377946275	1.002
17	208985	41.983377946275	1.002
17	209113	42.013377946275	1.002
17	209123	42.043377946275	1.002
17	209535	42.073377946275	1.002
17	209700	42.103377946275	1.002
17	209710	42.133377946275	1.002
17	210090	42.163377946275	1.002
17	210285	42.193377946275	1.002
17	210413	42.223377946275	1.002
17	210429	42.253377946275	1.002
17	210856	42.283377946275	1.002
17	210984	42.313377946275	1.002
17	210994	42.343377946275	1.002
17	211395	42.373377946275	1.002
17	211560	42.403377946275	1.002
17	211570	42.433377946275	1.002
17	211934	42.463377946275	1.002
17	212129	42.493377946275	1.002
17	212257	42.523377946275	1.002
17	212273	42.553377946275	1.002
17	212679	42.583377946275	1.002
17	212807	42.613377946275	1.002
17	212817	42.643377946275	1.002
17	213245	42.673377946275	1.002
17	213410	42.703377946275	1.002
17	213420	42.733377946275	1.002
17	213784	42.763377946275	1.002
17	213979	42.793377946275	1.002
17	214107	42.823377946275	1.002
17	214123	42.853377946275	1.002
17	214534	42.883377946275	1.002
17	214662	42.913377946275	1.002
17	214672	42.943377946275	1.002
17	215105	42.973377946275	1.002
17	215270	43.003377946275	1.002
17	215280	43.033377946275	1.002
17	215671	43.063377946275	1.002
17	215866	43.093377946275	1.002
17	215994	43.123377946275	1.002
17	216010	43.153377946275	1.002
17	216432	43.183377946275	1.002
17	216560	43.213377946275	1.002
17	216570	43.243377946275	1.002
17	216976	43.273377946275	1.002
17	217141	43.303377946275	1.002
17	217151	43.333377946275	1.002
17	217526	43.363377946275	1.002
17	217721	43.393377946275	1.002
17	217849	43.423377946275	1.002
17	217865	43.453377946275	1.002
17	218287	43.483377946275	1.002
17	218415	43.513377946275	1.002
17	218425	43.543377946275	1.002
17	218842	43.573377946275	1.002
17	219007	43.603377946275	1.002
17	219017	43.633377946275	1.002
17	219392	43.663377946275	1.002
17	219587	43.693377946275	1.002
17	219715	43.723377946275	1.002
17	219731	43.753377946275	1.002
17	220169	43.783377946275	1.002
17	220297	43.813377946275	1.002
17	220307	43.843377946275	1.002
17	220735	43.873377946275	1.002
17	220900	43.903377946275	1.002
17	220910	43.933377946275	1.002
17	221301	43.963377946275	1.002
17	221496	43.993377946275	1.002
17	221624	44.023377946275	1.002
17	221640	44.053377946275	1.002
17	222051	44.083377946275	1.002
17	222179	44.113377946275	1.002
17	222189	44.143377946275	1.002
17	222606	44.173377946275	1.002
17	222771	44.203377946275	1.002
17	222781	44.233377946275	1.002
17	223156	44.263377946275	1.002
17	223351	44.293377946275	1.002
17	223479	44.323377946275	1.002
17	223495	44.353377946275	1.002
17	223922	44.383377946275	1.002
17	224050	44.413377946275	1.002
17	224060	44.443377946275	1.002
17	224477	44.473377946275	1.002
17	224642	44.503377946275	1.002
17	224652	44.533377946275	1.002
17	225043	44.563377946275	1.002
17	225238	44.593377946275	1.002
17	225366	44.623377946275	1.002
17	225382	44.653377946275	1.002
17	225788	44.683377946275	1.002
17	225916	44.713377946275	1.002
17	225926	44.743377946275	1.002
17	226321	44.773377946275	1.002
17	226486	44.803377946275	1.002
17	226496	44.833377946275	1.002
17	226860	44.863377946275	1.002
17	227055	44.893377946275	1.002
17	227183	44.923377946275	1.002
17	227199	44.953377946275	1.002
17	227599	44.983377946275	1.002
17	227727	45.013377946275	1.002
17	227737	45.043377946275	1.002
17	228149	45.073377946275	1.002
17	228314	45.103377946275	1.002
17	228324	45.133377946275	1.002
17	228699	45.163377946275	1.002
17	228894	45.193377946275	1.002
17	229022	45.223377946275	1.002
17	229038	45.253377946275	1.002
17	229449	45.283377946275	1.002
17	229577	45.313377946275	1.002
17	229587	45.343377946275	1.002
17	230015	45.373377946275	1.002
17	230180	45.403377946275	1.002
17	230190	45.433377946275	1.002
17	230543	45.463377946275	1.002
17	230738	45.493377946275	1.002
17	230866	45.523377946275	1.002
17	230882	45.553377946275	1.002
17	231277	45.583377946275	1.002
17	231405	45.613377946275	1.002
17	231415	45.643377946275	1.002
17	231832	45.673377946275	1.002
17	231997	45.703377946275	1.002
17	232007	45.733377946275	1.002
17	232382	45.763377946275	1.002
17	232577	45.793377946275	1.002
17	232705	45.823377946275	1.002
17	232721	45.853377946275	1.002
17	233148	45.883377946275	1.002
17	233276	45.913377946275	1.002
17	233286	45.943377946275	1.002
17	233676	45.973377946275	1.002
17	233841	46.003377946275	1.002
17	233851	46.033377946275	1.002
17	234231	46.063377946275	1.002
17	234426	46.093377946275	1.002
17	234554	46.123377946275	1.002
17	234570	46.153377946275	1.002
17	235008	46.183377946275	1.002
17	235136	46.213377946275	1.002
17	235146	46.243377946275	1.002
17	235563	46.273377946275	1.002
17	235728	46.303377946275	1.002
17	235738	46.333377946275	1.002
17	236102	46.363377946275	1.002
17	236297	46.393377946275	1.002
17	236425	46.423377946275	1.002
17	236441	46.453377946275	1.002
17	236841	46.483377946275	1.002
17	236969	46.513377946275	1.002
17	236979	46.543377946275	1.002
17	237391	46.573377946275	1.002
17	237556	46.603377946275	1.002
17	237566	46.633377946275	1.002
17	237951	46.663377946275	1.002
17	238146	46.693377946275	1.002
17	238274	46.723377946275	1.002
17	238290	46.753377946275	1.002
17	238712	46.783377946275	1.002
17	238840	46.813377946275	1.002
17	238850	46.843377946275	1.002
17	239278	46.873377946275	1.002
17	239443	46.903377946275	1.002
17	239453	46.933377946275	1.002
17	239822	46.963377946275	1.002
17	240017	46.993377946275	1.002
17	240145	47.023377946275	1.002
17	240161	47.053377946275	1.002
17	240599	47.083377946275	1.002
17	240727	47.113377946275	1.002
17	240737	47.143377946275	1.002
17	241170	47.173377946275	1.002
17	241335	47.203377946275	1.002
17	241345	47.233377946275	1.002
17	241714	47.263377946275	1.002
17	241909	47.293377946275	1.002
17	242037	47.323377946275	1.002
17	242053	47.353377946275	1.002
17	242475	47.383377946275	1.002
17	242603	47.413377946275	1.002
17	242613	47.443377946275	1.002
17	243025	47.473377946275	1.002
17	243190	47.503377946275	1.002
17	243200	47.533377946275	1.002
17	243585	47.563377946275	1.002
17	243780	47.593377946275	1.002
17	243908	47.623377946275	1.002
17	243924	47.653377946275	1.002
17	244330	47.683377946275	1.002
17	244458	47.713377946275	1.002
17	244468	47.743377946275	1.002
17	244885	47.773377946275	1.002
17	245050	47.803377946275	1.002
17	245060	47.833377946275	1.002
17	245413	47.863377946275	1.002
17	245608	47.893377946275	1.002
17	245736	47.923377946275	1.002
17	245752	47.953377946275	1.002
17	246174	47.983377946275	1.002
17	246302	48.013377946275	1.002
17	246312	48.043377946275	1.002
17	246718	48.073377946275	1.002
17	246883	48.103377946275	1.002
17	246893	48.133377946275	1.002
17	247284	48.163377946275	1.002
17	247479	48.193377946275	1.002
17	247607	48.223377946275	1.002
17	247623	48.253377946275	1.002
17	248034	48.283377946275	1.002
17	248162	48.313377946275	1.002
17	248172	48.343377946275	1.002
17	248573	48.373377946275	1.002
17	248738	48.403377946275	1.002
17	248748	48.433377946275	1.002
17	249112	48.463377946275	1.002
17	249307	48.493377946275	1.002
17	249435	48.523377946275	1.002
17	249451	48.553377946275	1.002
17	249851	48.583377946275	1.002
17	249979	48.613377946275	1.002
17	249989	48.643377946275	1.002
17	250390	48.673377946275	1.002
17	250555	48.703377946275	1.002
17	250565	48.733377946275	1.002
17	250924	48.763377946275	1.002
17	251119	48.793377946275	1.002
17	251247	48.823377946275	1.002
17	251263	48.853377946275	1.002
17	251669	48.883377946275	1.002
17	251797	48.913377946275	1.002
17	251807	48.943377946275	1.002
17	252224	48.973377946275	1.002
17	252389	49.003377946275	1.002
17	252399	49.033377946275	1.002
17	252779	49.063377946275	1.002
17	252974	49.093377946275	1.002
17	253102	49.123377946275	1.002
17	253118	49.153377946275	1.002
17	253524	49.183377946275	1.002
17	253652	49.213377946275	1.002
17	253662	49.243377946275	1.002
17	254063	49.273377946275	1.002
17	254228	49.303377946275	1.002
17	254238	49.333377946275	1.002
17	254607	49.363377946275	1.002
17	254802	49.393377946275	1.002
17	254930	49.423377946275	1.002
17	254946	49.453377946275	1.002
17	255368	49.483377946275	1.002
17	255496	49.513377946275	1.002
17	255506	49.543377946275	1.002
17	255923	49.573377946275	1.002
17	256088	49.603377946275	1.002
17	256098	49.633377946275	1.002
17	256456	49.663377946275	1.002
17	256651	49.693377946275	1.002
17	256779	49.723377946275	1.002
17	256795	49.753377946275	1.002
17	257217	49.783377946275	1.002
17	257345	49.813377946275	1.002
17	257355	49.843377946275	1.002
17	257783	49.873377946275	1.002
17	257948	49.903377946275	1.002
17	257958	49.933377946275	1.002
17	258338	49.963377946275	1.002
17	258533	49.993377946275	1.002
17	258661	50.023377946275	1.002
17	258677	50.053377946275	1.002
17	259083	50.083377946275	1.002
17	259211	50.113377946275	1.002
17	259221	50.143377946275	1.002
17	259638	50.173377946275	1.002
17	259803	50.203377946275	1.002
17	259813	50.233377946275	1.002
17	260188	50.263377946275	1.002
17	260383	50.293377946275	1.002
17	260511	50.323377946275	1.002
17	260527	50.353377946275	1.002
17	260949	50.383377946275	1.002
17	261077	50.413377946275	1.002
17	261087	50.443377946275	1.002
17	261493	50.473377946275	1.002
17	261658	50.503377946275	1.002
17	261668	50.533377946275	1.002
17	262032	50.563377946275	1.002
17	262227	50.593377946275	1.002
17	262355	50.623377946275	1.002
17	262371	50.653377946275	1.002
17	262798	50.683377946275	1.002
17	262926	50.713377946275	1.002
17	262936	50.743377946275	1.002
17	263348	50.773377946275	1.002
17	263513	50.803377946275	1.002
17	263523	50.833377946275	1.002
17	263903	50.863377946275	1.002
17	264098	50.893377946275	1.002
17	264226	50.923377946275	1.002
17	264242	50.953377946275	1.002
17	264664	50.983377946275	1.002
17	264792	51.013377946275	1.002
17	264802	51.043377946275	1.002
17	265214	51.073377946275	1.002
17	265379	51.103377946275	1.002
17	265389	51.133377946275	1.002
17	265758	51.163377946275	1.002
17	265953	51.193377946275	1.002
17	266081	51.223377946275	1.002
17	266097	51.253377946275	1.002
17	266519	51.283377946275	1.002
17	266647	51.313377946275	1.002
17	266657	51.343377946275	1.002
17	267085	51.373377946275	1.002
17	267250	51.403377946275	1.002
17	267260	51.433377946275	1.002
17	267629	51.463377946275	1.002
17	267824	51.493377946275	1.002
17	267952	51.523377946275	1.002
17	267968	51.553377946275	1.002
17	268395	51.583377946275	1.002
17	268523	51.613377946275	1.002
17	268533	51.643377946275	1.002
17	268934	51.673377946275	1.002
17	269099	51.703377946275	1.002
17	269109	51.733377946275	1.002
17	269489	51.763377946275	1.002
17	269684	51.793377946275	1.002
17	269812	51.823377946275	1.002
17	269828	51.853377946275	1.002
17	270239	51.883377946275	1.002
17	270367	51.913377946275	1.002
17	270377	51.943377946275	1.002
17	270794	51.973377946275	1.002
17	270959	52.003377946275	1.002
17	270969	52.033377946275	1.002
17	271322	52.063377946275	1.002
17	271517	52.093377946275	1.002
17	271645	52.123377946275	1.002
17	271661	52.153377946275	1.002
17	272088	52.183377946275	1.002
17	272216	52.213377946275	1.002
17	272226	52.243377946275	1.002
17	272627	52.273377946275	1.002
17	272792	52.303377946275	1.002
17	272802	52.333377946275	1.002
17	273176	52.363377946275	1.002
17	273371	52.393377946275	1.002
17	273499	52.423377946275	1.002
17	273515	52.453377946275	1.002
17	273937	52.483377946275	1.002
17	274065	52.513377946275	1.002
17	274075	52.543377946275	1.002
17	274487	52.573377946275	1.002
17	274652	52.603377946275	1.002
17	274662	52.633377946275	1.002
17	275037	52.663377946275	1.002
17	275232	52.693377946275	1.002
17	275360	52.723377946275	1.002
17	275376	52.753377946275	1.002
17	275814	52.783377946275	1.002
17	275942	52.813377946275	1.002
17	275952	52.843377946275	1.002
17	276353	52.873377946275	1.002
17	276518	52.903377946275	1.002
17	276528	52.933377946275	1.002
17	276908	52.963377946275	1.002
17	277103	52.993377946275	1.002
17	277231	53.023377946275	1.002
17	277247	53.053377946275	1.002
17	277669	53.083377946275	1.002
17	277797	53.113377946275	1.002
17	277807	53.143377946275	1.002
17	278208	53.173377946275	1.002
17	278373	53.203377946275	1.002
17	278383	53.233377946275	1.002
17	278763	53.263377946275	1.002
17	278958	53.293377946275	1.002
17	279086	53.323377946275	1.002
17	279102	53.353377946275	1.002
17	279524	53.383377946275	1.002
17	279652	53.413377946275	1.002
17	279662	53.443377946275	1.002
17	280052	53.473377946275	1.002
17	280217	53.503377946275	1.002
17	280227	53.533377946275	1.002
17	280607	53.563377946275	1.002
17	280802	53.593377946275	1.002
17	280930	53.623377946275	1.002
17	280946	53.653377946275	1.002
17	281373	53.683377946275	1.002
17	281501	53.713377946275	1.002
17	281511	53.743377946275	1.002
17	281912	53.773377946275	1.002
17	282077	53.803377946275	1.002
17	282087	53.833377946275	1.002
17	282467	53.863377946275	1.002
17	282662	53.893377946275	1.002
17	282790	53.923377946275	1.002
17	282806	53.953377946275	1.002
17	283217	53.983377946275	1.002
17	283345	54.013377946275	1.002
17	283355	54.043377946275	1.002
17	283772	54.073377946275	1.002
17	283937	54.103377946275	1.002
17	283947	54.133377946275	1.002
17	284327	54.163377946275	1.002
17	284522	54.193377946275	1.002
17	284650	54.223377946275	1.002
17	284666	54.253377946275	1.002
17	285104	54.283377946275	1.002
17	285232	54.313377946275	1.002
17	285242	54.343377946275	1.002
17	285654	54.373377946275	1.002
17	285819	54.403377946275	1.002
17	285829	54.433377946275	1.002
17	286198	54.463377946275	1.002
17	286393	54.493377946275	1.002
17	286521	54.523377946275	1.002
17	286537	54.553377946275	1.002
17	286948	54.583377946275	1.002
17	287076	54.613377946275	1.002
17	287086	54.643377946275	1.002
17	287476	54.673377946275	1.002
17	287641	54.703377946275	1.002
17	287651	54.733377946275	1.002
17	288031	54.763377946275	1.002
17	288226	54.793377946275	1.002
17	288354	54.823377946275	1.002
17	288370	54.853377946275	1.002
17	288792	54.883377946275	1.002
17	288920	54.913377946275	1.002
17	288930	54.943377946275	1.002
17	289331	54.973377946275	1.002
17	289496	55.003377946275	1.002
17	289506	55.033377946275	1.002
17	289875	55.063377946275	1.002
17	290070	55.093377946275	1.002
17	290198	55.123377946275	1.002
17	290214	55.153377946275	1.002
17	290620	55.183377946275	1.002
17	290748	55.213377946275	1.002
17	290758	55.243377946275	1.002
17	291170	55.273377946275	1.002
17	291335	55.303377946275	1.002
17	291345	55.333377946275	1.002
17	291709	55.363377946275	1.002
17	291904	55.393377946275	1.002
17	292032	55.423377946275	1.002
17	292048	55.453377946275	1.002
17	292464	55.483377946275	1.002
17	292592	55.513377946275	1.002
17	292602	55.543377946275	1.002
17	293035	55.573377946275	1.002
17	293200	55.603377946275	1.002
17	293210	55.633377946275	1.002
17	293590	55.663377946275	1.002
17	293785	55.693377946275	1.002
17	293913	55.723377946275	1.002
17	293929	55.753377946275	1.002
17	294335	55.783377946275	1.002
17	294463	55.813377946275	1.002
17	294473	55.843377946275	1.002
17	294885	55.873377946275	1.002
17	295050	55.903377946275	1.002
17	295060	55.933377946275	1.002
17	295440	55.963377946275	1.002
17	295635	55.993377946275	1.002
17	295763	56.023377946275	1.002
17	295779	56.053377946275	1.002
17	296201	56.083377946275	1.002
17	296329	56.113377946275	1.002
17	296339	56.143377946275	1.002
17	296767	56.173377946275	1.002
17	296932	56.203377946275	1.002
17	296942	56.233377946275	1.002
17	297317	56.263377946275	1.002
17	297512	56.293377946275	1.002
17	297640	56.323377946275	1.002
17	297656	56.353377946275	1.002
17	298083	56.383377946275	1.002
17	298211	56.413377946275	1.002
17	298221	56.443377946275	1.002
17	298633	56.473377946275	1.002
17	298798	56.503377946275	1.002
17	298808	56.533377946275	1.002
17	299172	56.563377946275	1.002
17	299367	56.593377946275	1.002
17	299495	56.623377946275	1.002
17	299511	56.653377946275	1.002
17	299933	56.683377946275	1.002
17	300061	56.713377946275	1.002
17	300071	56.743377946275	1.002
17	300483	56.773377946275	1.002
17	300648	56.803377946275	1.002
17	300658	56.833377946275	1.002
17	301022	56.863377946275	1.002
17	301217	56.893377946275	1.002
17	301345	56.923377946275	1.002
17	301361	56.953377946275	1.002
17	301783	56.983377946275	1.002
17	301911	57.013377946275	1.002
17	301921	57.043377946275	1.002
17	302317	57.073377946275	1.002
17	302482	57.103377946275	1.002
17	302492	57.133377946275	1.002
17	302861	57.163377946275	1.002
17	303056	57.193377946275	1.002
17	303184	57.223377946275	1.002
17	303200	57.253377946275	1.002
17	303638	57.283377946275	1.002
17	303766	57.313377946275	1.002
17	303776	57.343377946275	1.002
17	304204	57.373377946275	1.002
17	304369	57.403377946275	1.002
17	304379	57.433377946275	1.002
17	304754	57.463377946275	1.002
17	304949	57.493377946275	1.002
17	305077	57.523377946275	1.002
17	305093	57.553377946275	1.002
17	305515	57.583377946275	1.002
17	305643	57.613377946275	1.002
17	305653	57.643377946275	1.002
17	306081	57.673377946275	1.002
17	306246	57.703377946275	1.002
17	306256	57.733377946275	1.002
17	306631	57.763377946275	1.002
17	306826	57.793377946275	1.002
17	306954	57.823377946275	1.002
17	306970	57.853377946275	1.002
17	307397	57.883377946275	1.002
17	307525	57.913377946275	1.002
17	307535	57.943377946275	1.002
17	307952	57.973377946275	1.002
17	308117	58.003377946275	1.002
17	308127	58.033377946275	1.002
17	308507	58.063377946275	1.002
17	308702	58.093377946275	1.002
17	308830	58.123377946275	1.002
17	308846	58.153377946275	1.002
17	309268	58.183377946275	1.002
17	309396	58.213377946275	1.002
17	309406	58.243377946275	1.002
17	309807	58.273377946275	1.002
17	309972	58.303377946275	1.002
17	309982	58.333377946275	1.002
17	310362	58.363377946275	1.002
17	310557	58.393377946275	1.002
17	310685	58.423377946275	1.002
17	310701	58.453377946275	1.002
17	311123	58.483377946275	1.002
17	311251	58.513377946275	1.002
17	311261	58.543377946275	1.002
17	311656	58.573377946275	1.002
17	311821	58.603377946275	1.002
17	311831	58.633377946275	1.002
17	312211	58.663377946275	1.002
17	312406	58.693377946275	1.002
17	312534	58.723377946275	1.002
17	312550	58.753377946275	1.002
17	312961	58.783377946275	1.002
17	313089	58.813377946275	1.002
17	313099	58.843377946275	1.002
17	313500	58.873377946275	1.002
17	313665	58.903377946275	1.002
17	313675	58.933377946275	1.002
17	314034	58.963377946275	1.002
17	314229	58.993377946275	1.002
17	314357	59.023377946275	1.002
17	314373	59.053377946275	1.002
17	314779	59.083377946275	1.002
17	314907	59.113377946275	1.002
17	314917	59.143377946275	1.002
17	315334	59.173377946275	1.002
17	315499	59.203377946275	1.002
17	315509	59.233377946275	1.002
17	315889	59.263377946275	1.002
17	316084	59.293377946275	1.002
17	316212	59.323377946275	1.002
17	316228	59.353377946275	1.002
17	316639	59.383377946275	1.002
17	316767	59.413377946275	1.002
17	316777	59.443377946275	1.002
17	317178	59.473377946275	1.002
17	317343	59.503377946275	1.002
17	317353	59.533377946275	1.002
17	317722	59.563377946275	1.002
17	317917	59.593377946275	1.002
17	318045	59.623377946275	1.002
17	318061	59.653377946275	1.002
17	318483	59.683377946275	1.002
17	318611	59.713377946275	1.002
17	318621	59.743377946275	1.002
17	319027	59.773377946275	1.002
17	319192	59.803377946275	1.002
17	319202	59.833377946275	1.002
17	319566	59.863377946275	1.002
17	319761	59.893377946275	1.002
17	319889	59.923377946275	1.002
17	319905	59.953377946275	1.002
17	320343	59.983377946275	1.002
17	320471	60.013377946275	1.002
17	320481	60.043377946275	1.002
17	320871	60.073377946275	1.002
17	321036	60.103377946275	1.002
17	321046	60.133377946275	1.002
17	321405	60.163377946275	1.002
17	321600	60.193377946275	1.002
17	321728	60.223377946275	1.002
17	321744	60.253377946275	1.002
17	322150	60.283377946275	1.002
17	322278	60.313377946275	1.002
17	322288	60.343377946275	1.002
17	322710	60.373377946275	1.002
17	322875	60.403377946275	1.002
17	322885	60.433377946275	1.002
17	323254	60.463377946275	1.002
17	323449	60.493377946275	1.002
17	323577	60.523377946275	1.002
17	323593	60.553377946275	1.002
17	323999	60.583377946275	1.002
17	324127	60.613377946275	1.002
17	324137	60.643377946275	1.002
17	324565	60.673377946275	1.002
17	324730	60.703377946275	1.002
17	324740	60.733377946275	1.002
17	325109	60.763377946275	1.002
17	325304	60.793377946275	1.002
17	325432	60.823377946275	1.002
17	325448	60.853377946275	1.002
17	325859	60.883377946275	1.002
17	325987	60.913377946275	1.002
17	325997	60.943377946275	1.002
17	326376	60.973377946275	1.002
17	326541	61.003377946275	1.002
17	326551	61.033377946275	1.002
17	326926	61.063377946275	1.002
17	327121	61.093377946275	1.002
17	327249	61.123377946275	1.002
17	327265	61.153377946275	1.002
17	327687	61.183377946275	1.002
17	327815	61.213377946275	1.002
17	327825	61.243377946275	1.002
17	328226	61.273377946275	1.002
17	328391	61.303377946275	1.002
17	328401	61.333377946275	1.002
17	328776	61.363377946275	1.002
17	328971	61.393377946275	1.002
17	329099	61.423377946275	1.002
17	329115	61.453377946275	1.002
17	329526	61.483377946275	1.002
17	329654	61.513377946275	1.002
17	329664	61.543377946275	1.002
17	330081	61.573377946275	1.002
16	12	0.253377946275	1
16	27	0.283377946275	2
16	45	0.313377946275	3
16	47	0.343377946275	4
16	77	0.373377946275	5
16	95	0.403377946275	6
16	97	0.433377946275	7
16	127	0.463377946275	8
16	142	0.493377946275	9
16	160	0.523377946275	10
16	164	0.553377946275	11
16	192	0.583377946275	12
16	210	0.613377946275	13
16	212	0.643377946275	14
16	242	0.673377946275	15
16	260	0.703377946275	16
16	262	0.733377946275	17
16	292	0.763377946275	18
16	307	0.793377946275	19
16	325	0.823377946275	20
16	329	0.853377946275	21
16	357	0.883377946275	22
16	375	0.913377946275	23
16	377	0.943377946275	24
16	407	0.973377946275	25
16	425	1.003377946275	26
16	427	1.033377946275	27
16	457	1.063377946275	28
16	472	1.093377946275	29
16	490	1.123377946275	30
16	494	1.153377946275	31
16	522	1.183377946275	32
16	540	1.213377946275	33
16	542	1.243377946275	34
16	572	1.273377946275	35
16	590	1.303377946275	36
16	592	1.333377946275	37
16	622	1.363377946275	38
16	637	1.393377946275	39
16	655	1.423377946275	40
16	659	1.453377946275	41
16	687	1.483377946275	42
16	705	1.513377946275	43
16	707	1.543377946275	44
16	737	1.573377946275	45
16	755	1.603377946275	46
16	757	1.633377946275	47
16	787	1.663377946275	48
16	802	1.693377946275	49
16	820	1.723377946275	50
16	824	1.753377946275	51
16	852	1.783377946275	52
16	870	1.813377946275	53
16	872	1.843377946275	54
16	902	1.873377946275	55
16	920	1.903377946275	56
16	922	1.933377946275	57
16	952	1.963377946275	58
16	967	1.993377946275	59
16	985	2.023377946275	60
16	989	2.053377946275	61
16	1017	2.083377946275	62
16	1035	2.113377946275	63
16	1037	2.143377946275	64
16	1067	2.173377946275	65
16	1085	2.203377946275	66
16	1087	2.233377946275	67
16	1117	2.263377946275	68
16	1132	2.293377946275	69
16	1150	2.323377946275	70
16	1154	2.353377946275	71
16	1182	2.383377946275	72
16	1200	2.413377946275	73
16	1202	2.443377946275	74
16	1232	2.473377946275	75
16	1250	2.503377946275	76
16	1252	2.533377946275	77
16	1282	2.563377946275	78
16	1297	2.593377946275	79
16	1315	2.623377946275	80
16	1319	2.653377946275	81
16	1347	2.683377946275	82
16	1365	2.713377946275	83
16	1367	2.743377946275	84
16	1397	2.773377946275	85
16	1415	2.803377946275	86
16	1417	2.833377946275	87
16	1447	2.863377946275	88
16	1462	2.893377946275	89
16	1480	2.923377946275	90
16	1484	2.953377946275	91
16	1512	2.983377946275	92
16	1530	3.013377946275	93
16	1532	3.043377946275	94
16	1562	3.073377946275	95
16	1580	3.103377946275	96
16	1582	3.133377946275	97
16	1625	3.163377946275	98
16	1646	3.193377946275	99
16	1671	3.223377946275	100
16	1676	3.253377946275	101
16	1716	3.283377946275	102
16	1741	3.313377946275	103
16	1743	3.343377946275	104
16	1786	3.373377946275	105
16	1811	3.403377946275	106
16	1813	3.433377946275	107
16	1856	3.463377946275	108
16	1877	3.493377946275	109
16	1902	3.523377946275	110
16	1907	3.553377946275	111
16	1947	3.583377946275	112
16	1972	3.613377946275	113
16	1974	3.643377946275	114
16	2017	3.673377946275	115
16	2042	3.703377946275	116
16	2044	3.733377946275	117
16	2087	3.763377946275	118
16	2108	3.793377946275	119
16	2133	3.823377946275	120
16	2138	3.853377946275	121
16	2199	3.883377946275	123
16	2245	3.913377946275	125
16	2249	3.943377946275	127
16	2325	3.973377946275	129
16	2371	4.003377946275	131
16	2375	4.033377946275	133
16	2451	4.063377946275	135
16	2493	4.093377946275	137
16	2539	4.123377946275	139
16	2546	4.153377946275	141
16	2626	4.183377946275	143
16	2672	4.213377946275	145
16	2676	4.243377946275	147
16	2752	4.273377946275	149
16	2798	4.303377946275	151
16	2802	4.333377946275	153
16	2885	4.363377946275	155
16	2927	4.393377946275	157
16	2973	4.423377946275	159
16	2980	4.453377946275	161
16	3060	4.483377946275	163
16	3106	4.513377946275	165
16	3110	4.543377946275	167
16	3186	4.573377946275	169
16	3232	4.603377946275	171
16	3236	4.633377946275	173
16	3312	4.663377946275	175
16	3354	4.693377946275	177
16	3400	4.723377946275	179
16	3407	4.753377946275	181
16	3487	4.783377946275	183
16	3533	4.813377946275	185
16	3537	4.843377946275	187
16	3620	4.873377946275	189
16	3666	4.903377946275	191
16	3670	4.933377946275	193
16	3753	4.963377946275	195
16	3795	4.993377946275	197
16	3841	5.023377946275	199
16	3848	5.053377946275	201
16	3928	5.083377946275	203
16	3974	5.113377946275	205
16	3978	5.143377946275	207
16	4054	5.173377946275	209
16	4100	5.203377946275	211
16	4104	5.233377946275	213
16	4187	5.263377946275	215
16	4229	5.293377946275	217
16	4275	5.323377946275	219
16	4282	5.353377946275	221
16	4362	5.383377946275	223
16	4408	5.413377946275	225
16	4412	5.443377946275	227
16	4495	5.473377946275	229
16	4541	5.503377946275	231
16	4545	5.533377946275	233
16	4628	5.563377946275	235
16	4670	5.593377946275	237
16	4716	5.623377946275	239
16	4723	5.653377946275	241
16	4803	5.683377946275	243
16	4849	5.713377946275	245
16	4853	5.743377946275	247
16	4936	5.773377946275	249
16	4982	5.803377946275	251
16	4986	5.833377946275	253
16	5069	5.863377946275	255
16	5111	5.893377946275	257
16	5157	5.923377946275	259
16	5164	5.953377946275	261
16	5244	5.983377946275	263
16	5290	6.013377946275	265
16	5294	6.043377946275	267
16	5377	6.073377946275	269
16	5423	6.103377946275	271
16	5427	6.133377946275	273
16	5535	6.163377946275	275
16	5589	6.193377946275	277
16	5648	6.223377946275	279
16	5656	6.253377946275	281
16	5760	6.283377946275	283
16	5819	6.313377946275	285
16	5823	6.343377946275	287
16	5921	6.373377946275	289
16	5980	6.403377946275	291
16	5984	6.433377946275	293
16	6082	6.463377946275	295
16	6136	6.493377946275	297
16	6195	6.523377946275	299
16	6205	6.553377946275	302
16	6361	6.583377946275	305
16	6422	6.613377946275	308
16	6428	6.643377946275	311
16	6613	6.673377946275	314
16	6674	6.703377946275	317
16	6680	6.733377946275	320
16	6845	6.763377946275	323
16	6926	6.793377946275	326
16	6987	6.823377946275	329
16	6997	6.853377946275	332
16	7168	6.883377946275	335
16	7229	6.913377946275	338
16	7235	6.943377946275	341
16	7400	6.973377946275	344
16	7461	7.003377946275	347
16	7467	7.033377946275	350
16	7632	7.063377946275	353
16	7713	7.093377946275	356
16	7774	7.123377946275	359
16	7784	7.153377946275	362
16	7955	7.183377946275	365
16	8016	7.213377946275	368
16	8022	7.243377946275	371
16	8187	7.273377946275	374
16	8248	7.303377946275	377
16	8254	7.333377946275	380
16	8429	7.363377946275	383
16	8510	7.393377946275	386
16	8571	7.423377946275	389
16	8581	7.453377946275	392
16	8752	7.483377946275	395
16	8813	7.513377946275	398
16	8819	7.543377946275	401
16	8994	7.573377946275	404
16	9055	7.603377946275	407
16	9061	7.633377946275	410
16	9236	7.663377946275	413
16	9317	7.693377946275	416
16	9378	7.723377946275	419
16	9388	7.753377946275	422
16	9569	7.783377946275	425
16	9630	7.813377946275	428
16	9636	7.843377946275	431
16	9821	7.873377946275	434
16	9882	7.903377946275	437
16	9888	7.933377946275	440
16	10053	7.963377946275	443
16	10134	7.993377946275	446
16	10195	8.023377946275	449
16	10205	8.053377946275	452
16	10376	8.083377946275	455
16	10437	8.113377946275	458
16	10443	8.143377946275	461
16	10611	8.173377946275	464
16	10672	8.203377946275	467
16	10678	8.233377946275	470
16	10853	8.263377946275	473
16	10934	8.293377946275	476
16	10995	8.323377946275	479
16	11005	8.353377946275	482
16	11176	8.383377946275	485
16	11237	8.413377946275	488
16	11243	8.443377946275	491
16	11418	8.473377946275	494
16	11479	8.503377946275	497
16	11485	8.533377946275	500
16	11660	8.563377946275	503
16	11741	8.593377946275	506
16	11802	8.623377946275	509
16	11812	8.653377946275	512
16	11973	8.683377946275	515
16	12034	8.713377946275	518
16	12040	8.743377946275	521
16	12215	8.773377946275	524
16	12276	8.803377946275	527
16	12282	8.833377946275	530
16	12457	8.863377946275	533
16	12538	8.893377946275	536
16	12599	8.923377946275	539
16	12609	8.953377946275	542
16	12790	8.983377946275	545
16	12851	9.013377946275	548
16	12857	9.043377946275	551
16	13032	9.073377946275	554
16	13093	9.103377946275	557
16	13099	9.133377946275	560
16	13315	9.163377946275	564
16	13447	9.193377946275	568
16	13554	9.223377946275	572
16	13567	9.253377946275	576
16	13841	9.283377946275	580
16	13948	9.313377946275	584
16	13956	9.343377946275	588
16	14210	9.373377946275	592
16	14317	9.403377946275	596
16	14325	9.433377946275	600
16	14583	9.463377946275	604
16	14715	9.493377946275	608
16	14822	9.523377946275	612
16	14835	9.553377946275	616
16	15088	9.583377946275	620
16	15195	9.613377946275	624
16	15203	9.643377946275	628
16	15482	9.673377946275	632
16	15589	9.703377946275	636
16	15597	9.733377946275	640
16	15854	9.763377946275	644
16	15986	9.793377946275	648
16	16093	9.823377946275	652
16	16106	9.853377946275	656
16	16380	9.883377946275	660
16	16487	9.913377946275	664
16	16495	9.943377946275	668
16	16749	9.973377946275	672
16	16856	10.003377946275	676
16	16864	10.033377946275	680
16	17130	10.063377946275	684
16	17262	10.093377946275	688
16	17369	10.123377946275	692
16	17382	10.153377946275	696
16	17643	10.183377946275	700
16	17750	10.213377946275	704
16	17758	10.243377946275	708
16	18024	10.273377946275	712
16	18131	10.303377946275	716
16	18139	10.333377946275	720
16	18396	10.363377946275	724
16	18528	10.393377946275	728
16	18635	10.423377946275	732
16	18648	10.453377946275	736
16	18909	10.483377946275	740
16	19016	10.513377946275	744
16	19024	10.543377946275	748
16	19294	10.573377946275	752
16	19401	10.603377946275	756
16	19409	10.633377946275	760
16	19666	10.663377946275	764
16	19798	10.693377946275	768
16	19905	10.723377946275	772
16	19918	10.753377946275	776
16	20192	10.783377946275	780
16	20299	10.813377946275	784
16	20307	10.843377946275	788
16	20573	10.873377946275	792
16	20680	10.903377946275	796
16	20688	10.933377946275	800
16	20945	10.963377946275	804
16	21077	10.993377946275	808
16	21184	11.023377946275	812
16	21197	11.053377946275	816
16	21471	11.083377946275	820
[...]
14	226483	44.800279767208	0.002
14	226506	44.850279767208	0.001
14	227176	44.900279767208	0.002
14	227196	44.950279767208	0.001
14	227721	45.000279767208	0.002
14	227746	45.050279767208	0.001
14	228311	45.100279767208	0.002
14	228334	45.150279767208	0.001
14	229015	45.200279767208	0.002
14	229035	45.250279767208	0.001
14	229571	45.300279767208	0.002
14	229596	45.350279767208	0.001
14	230177	45.400279767208	0.002
14	230200	45.450279767208	0.001
14	230859	45.500279767208	0.002
14	230879	45.550279767208	0.001
14	231399	45.600279767208	0.002
14	231424	45.650279767208	0.001
14	231994	45.700279767208	0.002
14	232017	45.750279767208	0.001
14	232698	45.800279767208	0.002
14	232718	45.850279767208	0.001
14	233270	45.900279767208	0.002
14	233295	45.950279767208	0.001
14	233838	46.000279767208	0.002
14	233861	46.050279767208	0.001
14	234547	46.100279767208	0.002
14	234567	46.150279767208	0.001
14	235130	46.200279767208	0.002
14	235155	46.250279767208	0.001
14	235725	46.300279767208	0.002
14	235748	46.350279767208	0.001
14	236418	46.400279767208	0.002
14	236438	46.450279767208	0.001
14	236963	46.500279767208	0.002
14	236988	46.550279767208	0.001
14	237553	46.600279767208	0.002
14	237576	46.650279767208	0.001
14	238267	46.700279767208	0.002
14	238287	46.750279767208	0.001
14	238834	46.800279767208	0.002
14	238859	46.850279767208	0.001
14	239440	46.900279767208	0.002
14	239463	46.950279767208	0.001
14	240138	47.000279767208	0.002
14	240158	47.050279767208	0.001
14	240721	47.100279767208	0.002
14	240746	47.150279767208	0.001
14	241332	47.200279767208	0.002
14	241355	47.250279767208	0.001
14	242030	47.300279767208	0.002
14	242050	47.350279767208	0.001
14	242597	47.400279767208	0.002
14	242622	47.450279767208	0.001
14	243187	47.500279767208	0.002
14	243210	47.550279767208	0.001
14	243901	47.600279767208	0.002
14	243921	47.650279767208	0.001
14	244452	47.700279767208	0.002
14	244477	47.750279767208	0.001
14	245047	47.800279767208	0.002
14	245070	47.850279767208	0.001
14	245729	47.900279767208	0.002
14	245749	47.950279767208	0.001
14	246296	48.000279767208	0.002
14	246321	48.050279767208	0.001
14	246880	48.100279767208	0.002
14	246903	48.150279767208	0.001
14	247600	48.200279767208	0.002
14	247620	48.250279767208	0.001
14	248156	48.300279767208	0.002
14	248181	48.350279767208	0.001
14	248735	48.400279767208	0.002
14	248758	48.450279767208	0.001
14	249428	48.500279767208	0.002
14	249448	48.550279767208	0.001
14	249973	48.600279767208	0.002
14	249998	48.650279767208	0.001
14	250552	48.700279767208	0.002
14	250575	48.750279767208	0.001
14	251240	48.800279767208	0.002
14	251260	48.850279767208	0.001
14	251791	48.900279767208	0.002
14	251816	48.950279767208	0.001
14	252386	49.000279767208	0.002
14	252409	49.050279767208	0.001
14	253095	49.100279767208	0.002
14	253115	49.150279767208	0.001
14	253646	49.200279767208	0.002
14	253671	49.250279767208	0.001
14	254225	49.300279767208	0.002
14	254248	49.350279767208	0.001
14	254923	49.400279767208	0.002
14	254943	49.450279767208	0.001
14	255490	49.500279767208	0.002
14	255515	49.550279767208	0.001
14	256085	49.600279767208	0.002
14	256108	49.650279767208	0.001
14	256772	49.700279767208	0.002
14	256792	49.750279767208	0.001
14	257339	49.800279767208	0.002
14	257364	49.850279767208	0.001
14	257945	49.900279767208	0.002
14	257968	49.950279767208	0.001
14	258654	50.000279767208	0.002
14	258674	50.050279767208	0.001
14	259205	50.100279767208	0.002
14	259230	50.150279767208	0.001
14	259800	50.200279767208	0.002
14	259823	50.250279767208	0.001
14	260504	50.300279767208	0.002
14	260524	50.350279767208	0.001
14	261071	50.400279767208	0.002
14	261096	50.450279767208	0.001
14	261655	50.500279767208	0.002
14	261678	50.550279767208	0.001
14	262348	50.600279767208	0.002
14	262368	50.650279767208	0.001
14	262920	50.700279767208	0.002
14	262945	50.750279767208	0.001
14	263510	50.800279767208	0.002
14	263533	50.850279767208	0.001
14	264219	50.900279767208	0.002
14	264239	50.950279767208	0.001
14	264786	51.000279767208	0.002
14	264811	51.050279767208	0.001
14	265376	51.100279767208	0.002
14	265399	51.150279767208	0.001
14	266074	51.200279767208	0.002
14	266094	51.250279767208	0.001
14	266641	51.300279767208	0.002
14	266666	51.350279767208	0.001
14	267247	51.400279767208	0.002
14	267270	51.450279767208	0.001
14	267945	51.500279767208	0.002
14	267965	51.550279767208	0.001
14	268517	51.600279767208	0.002
14	268542	51.650279767208	0.001
14	269096	51.700279767208	0.002
14	269119	51.750279767208	0.001
14	269805	51.800279767208	0.002
14	269825	51.850279767208	0.001
14	270361	51.900279767208	0.002
14	270386	51.950279767208	0.001
14	270956	52.000279767208	0.002
14	270979	52.050279767208	0.001
14	271638	52.100279767208	0.002
14	271658	52.150279767208	0.001
14	272210	52.200279767208	0.002
14	272235	52.250279767208	0.001
14	272789	52.300279767208	0.002
14	272812	52.350279767208	0.001
14	273492	52.400279767208	0.002
14	273512	52.450279767208	0.001
14	274059	52.500279767208	0.002
14	274084	52.550279767208	0.001
14	274649	52.600279767208	0.002
14	274672	52.650279767208	0.001
14	275353	52.700279767208	0.002
14	275373	52.750279767208	0.001
14	275936	52.800279767208	0.002
14	275961	52.850279767208	0.001
14	276515	52.900279767208	0.002
14	276538	52.950279767208	0.001
14	277224	53.000279767208	0.002
14	277244	53.050279767208	0.001
14	277791	53.100279767208	0.002
14	277816	53.150279767208	0.001
14	278370	53.200279767208	0.002
14	278393	53.250279767208	0.001
14	279079	53.300279767208	0.002
14	279099	53.350279767208	0.001
14	279646	53.400279767208	0.002
14	279671	53.450279767208	0.001
14	280214	53.500279767208	0.002
14	280237	53.550279767208	0.001
14	280923	53.600279767208	0.002
14	280943	53.650279767208	0.001
14	281495	53.700279767208	0.002
14	281520	53.750279767208	0.001
14	282074	53.800279767208	0.002
14	282097	53.850279767208	0.001
14	282783	53.900279767208	0.002
14	282803	53.950279767208	0.001
14	283339	54.000279767208	0.002
14	283364	54.050279767208	0.001
14	283934	54.100279767208	0.002
14	283957	54.150279767208	0.001
14	284643	54.200279767208	0.002
14	284663	54.250279767208	0.001
14	285226	54.300279767208	0.002
14	285251	54.350279767208	0.001
14	285816	54.400279767208	0.002
14	285839	54.450279767208	0.001
14	286514	54.500279767208	0.002
14	286534	54.550279767208	0.001
14	287070	54.600279767208	0.002
14	287095	54.650279767208	0.001
14	287638	54.700279767208	0.002
14	287661	54.750279767208	0.001
14	288347	54.800279767208	0.002
14	288367	54.850279767208	0.001
14	288914	54.900279767208	0.002
14	288939	54.950279767208	0.001
14	289493	55.000279767208	0.002
14	289516	55.050279767208	0.001
14	290191	55.100279767208	0.002
14	290211	55.150279767208	0.001
14	290742	55.200279767208	0.002
14	290767	55.250279767208	0.001
14	291332	55.300279767208	0.002
14	291355	55.350279767208	0.001
14	292025	55.400279767208	0.002
14	292045	55.450279767208	0.001
14	292586	55.500279767208	0.002
14	292611	55.550279767208	0.001
14	293197	55.600279767208	0.002
14	293220	55.650279767208	0.001
14	293906	55.700279767208	0.002
14	293926	55.750279767208	0.001
14	294457	55.800279767208	0.002
14	294482	55.850279767208	0.001
14	295047	55.900279767208	0.002
14	295070	55.950279767208	0.001
14	295756	56.000279767208	0.002
14	295776	56.050279767208	0.001
14	296323	56.100279767208	0.002
14	296348	56.150279767208	0.001
14	296929	56.200279767208	0.002
14	296952	56.250279767208	0.001
14	297633	56.300279767208	0.002
14	297653	56.350279767208	0.001
14	298205	56.400279767208	0.002
14	298230	56.450279767208	0.001
14	298795	56.500279767208	0.002
14	298818	56.550279767208	0.001
14	299488	56.600279767208	0.002
14	299508	56.650279767208	0.001
14	300055	56.700279767208	0.002
14	300080	56.750279767208	0.001
14	300645	56.800279767208	0.002
14	300668	56.850279767208	0.001
14	301338	56.900279767208	0.002
14	301358	56.950279767208	0.001
14	301905	57.000279767208	0.002
14	301930	57.050279767208	0.001
14	302479	57.100279767208	0.002
14	302502	57.150279767208	0.001
14	303177	57.200279767208	0.002
14	303197	57.250279767208	0.001
14	303760	57.300279767208	0.002
14	303785	57.350279767208	0.001
14	304366	57.400279767208	0.002
14	304389	57.450279767208	0.001
14	305070	57.500279767208	0.002
14	305090	57.550279767208	0.001
14	305637	57.600279767208	0.002
14	305662	57.650279767208	0.001
14	306243	57.700279767208	0.002
14	306266	57.750279767208	0.001
14	306947	57.800279767208	0.002
14	306967	57.850279767208	0.001
14	307519	57.900279767208	0.002
14	307544	57.950279767208	0.001
14	308114	58.000279767208	0.002
14	308137	58.050279767208	0.001
14	308823	58.100279767208	0.002
14	308843	58.150279767208	0.001
14	309390	58.200279767208	0.002
14	309415	58.250279767208	0.001
14	309969	58.300279767208	0.002
14	309992	58.350279767208	0.001
14	310678	58.400279767208	0.002
14	310698	58.450279767208	0.001
14	311245	58.500279767208	0.002
14	311270	58.550279767208	0.001
14	311818	58.600279767208	0.002
14	311841	58.650279767208	0.001
14	312527	58.700279767208	0.002
14	312547	58.750279767208	0.001
14	313083	58.800279767208	0.002
14	313108	58.850279767208	0.001
14	313662	58.900279767208	0.002
14	313685	58.950279767208	0.001
14	314350	59.000279767208	0.002
14	314370	59.050279767208	0.001
14	314901	59.100279767208	0.002
14	314926	59.150279767208	0.001
14	315496	59.200279767208	0.002
14	315519	59.250279767208	0.001
14	316205	59.300279767208	0.002
14	316225	59.350279767208	0.001
14	316761	59.400279767208	0.002
14	316786	59.450279767208	0.001
14	317340	59.500279767208	0.002
14	317363	59.550279767208	0.001
14	318038	59.600279767208	0.002
14	318058	59.650279767208	0.001
14	318605	59.700279767208	0.002
14	318630	59.750279767208	0.001
14	319189	59.800279767208	0.002
14	319212	59.850279767208	0.001
14	319882	59.900279767208	0.002
14	319902	59.950279767208	0.001
14	320465	60.000279767208	0.002
14	320490	60.050279767208	0.001
14	321033	60.100279767208	0.002
14	321056	60.150279767208	0.001
14	321721	60.200279767208	0.002
14	321741	60.250279767208	0.001
14	322272	60.300279767208	0.002
14	322297	60.350279767208	0.001
14	322872	60.400279767208	0.002
14	322895	60.450279767208	0.001
14	323570	60.500279767208	0.002
14	323590	60.550279767208	0.001
14	324121	60.600279767208	0.002
14	324146	60.650279767208	0.001
14	324727	60.700279767208	0.002
14	324750	60.750279767208	0.001
14	325425	60.800279767208	0.002
14	325445	60.850279767208	0.001
14	325981	60.900279767208	0.002
14	326006	60.950279767208	0.001
14	326538	61.000279767208	0.002
14	326561	61.050279767208	0.001
14	327242	61.100279767208	0.002
14	327262	61.150279767208	0.001
14	327809	61.200279767208	0.002
14	327834	61.250279767208	0.001
14	328388	61.300279767208	0.002
14	328411	61.350279767208	0.001
14	329092	61.400279767208	0.002
14	329112	61.450279767208	0.001
14	329648	61.500279767208	0.002
14	329673	61.550279767208	0.001
14	330242	61.600279767208	0.002
14	330260	61.650279767208	0.001
14	330733	61.700279767208	0.002
14	330750	61.750279767208	0.001
14	331141	61.800279767208	0.002
14	331161	61.850279767208	0.001
14	331538	61.900279767208	0.002
14	331556	61.950279767208	0.001
14	332003	62.000279767208	0.002
14	332020	62.050279767208	0.001
14	332398	62.100279767208	0.002
14	332418	62.150279767208	0.001
14	332800	62.200279767208	0.002
14	332818	62.250279767208	0.001
14	333291	62.300279767208	0.002
14	333308	62.350279767208	0.001
14	333686	62.400279767208	0.002
14	333706	62.450279767208	0.001
14	334092	62.500279767208	0.002
14	334110	62.550279767208	0.001
14	334561	62.600279767208	0.002
14	334578	62.650279767208	0.001
14	334969	62.700279767208	0.002
14	334989	62.750279767208	0.001
14	335397	62.800279767208	0.002
14	335415	62.850279767208	0.001
14	335875	62.900279767208	0.002
14	335892	62.950279767208	0.001
14	336248	63.000279767208	0.002
14	336268	63.050279767208	0.001
14	336645	63.100279767208	0.002
14	336663	63.150279767208	0.001
14	337101	63.200279767208	0.002
14	337118	63.250279767208	0.001
14	337496	63.300279767208	0.002
14	337516	63.350279767208	0.001
14	337924	63.400279767208	0.002
14	337942	63.450279767208	0.001
14	338402	63.500279767208	0.002
14	338419	63.550279767208	0.001
14	338775	63.600279767208	0.002
14	338795	63.650279767208	0.001
14	339190	63.700279767208	0.002
14	339208	63.750279767208	0.001
14	339668	63.800279767208	0.002
14	339685	63.850279767208	0.001
14	340050	63.900279767208	0.002
14	340070	63.950279767208	0.001
14	340478	64.000279767208	0.002
14	340496	64.050279767208	0.001
14	340956	64.100279767208	0.002
14	340973	64.150279767208	0.001
14	341351	64.200279767208	0.002
14	341371	64.250279767208	0.001
14	341779	64.300279767208	0.002
14	341797	64.350279767208	0.001
14	342270	64.400279767208	0.002
14	342287	64.450279767208	0.001
14	342665	64.500279767208	0.002
14	342685	64.550279767208	0.001
14	343079	64.600279767208	0.002
14	343092	64.650279767208	0.001
14	343373	64.700279767208	0.002
14	343387	64.750279767208	0.001
14	343616	64.800279767208	0.002
14	343631	64.850279767208	0.001
14	343896	64.900279767208	0.002
14	343909	64.950279767208	0.001
14	344200	65.000279767208	0.002
14	344214	65.050279767208	0.001
14	344426	65.100279767208	0.002
14	344441	65.150279767208	0.001
14	344706	65.200279767208	0.002
14	344719	65.250279767208	0.001
14	345010	65.300279767208	0.002
14	345024	65.350279767208	0.001
14	345253	65.400279767208	0.002
14	345268	65.450279767208	0.001
14	345513	65.500279767208	0.002
14	345526	65.550279767208	0.001
14	345817	65.600279767208	0.002
14	345831	65.650279767208	0.001
14	346060	65.700279767208	0.002
14	346075	65.750279767208	0.001
14	346340	65.800279767208	0.002
14	346353	65.850279767208	0.001
14	346624	65.900279767208	0.002
14	346638	65.950279767208	0.001
14	346867	66.000279767208	0.002
14	346882	66.050279767208	0.001
14	347127	66.100279767208	0.002
14	347140	66.150279767208	0.001
14	347421	66.200279767208	0.002
14	347435	66.250279767208	0.001
14	347664	66.300279767208	0.002
14	347679	66.350279767208	0.001
14	347944	66.400279767208	0.002
14	347957	66.450279767208	0.001
14	348238	66.500279767208	0.002
14	348252	66.550279767208	0.001
14	348491	66.600279767208	0.002
14	348506	66.650279767208	0.001
14	348761	66.700279767208	0.002
14	348774	66.750279767208	0.001
14	349065	66.800279767208	0.002
14	349079	66.850279767208	0.001
14	349318	66.900279767208	0.002
14	349333	66.950279767208	0.001
14	349578	67.000279767208	0.002
14	349591	67.050279767208	0.001
14	349872	67.100279767208	0.002
14	349886	67.150279767208	0.001
14	350115	67.200279767208	0.002
14	350130	67.250279767208	0.001
14	350385	67.300279767208	0.002
14	350398	67.350279767208	0.001
14	350689	67.400279767208	0.002
14	350703	67.450279767208	0.001
14	350932	67.500279767208	0.002
14	350947	67.550279767208	0.001
14	351201	67.600279767208	0.002
14	351210	67.650279767208	0.001
14	351347	67.700279767208	0.002
14	351357	67.750279767208	0.001
14	351481	67.800279767208	0.002
14	351491	67.850279767208	0.001
14	351635	67.900279767208	0.002
14	351644	67.950279767208	0.001
14	351781	68.000279767208	0.002
14	351791	68.050279767208	0.001
14	351908	68.100279767208	0.002
14	351918	68.150279767208	0.001
14	352055	68.200279767208	0.002
14	352064	68.250279767208	0.001
14	352208	68.300279767208	0.002
14	352218	68.350279767208	0.001
14	352342	68.400279767208	0.002
14	352352	68.450279767208	0.001
14	352489	68.500279767208	0.002
14	352498	68.550279767208	0.001
14	352635	68.600279767208	0.002
14	352645	68.650279767208	0.001
14	352769	68.700279767208	0.002
14	352779	68.750279767208	0.001
14	352916	68.800279767208	0.002
14	352925	68.850279767208	0.001
14	353062	68.900279767208	0.002
14	353072	68.950279767208	0.001
14	353189	69.000279767208	0.002
14	353199	69.050279767208	0.001
14	353336	69.100279767208	0.002
14	353345	69.150279767208	0.001
14	353489	69.200279767208	0.002
14	353499	69.250279767208	0.001
14	353616	69.300279767208	0.002
14	353626	69.350279767208	0.001
14	353763	69.400279767208	0.002
14	353772	69.450279767208	0.001
14	353909	69.500279767208	0.002
14	353919	69.550279767208	0.001
14	354043	69.600279767208	0.002
14	354053	69.650279767208	0.001
14	354197	69.700279767208	0.002
14	354206	69.750279767208	0.001
14	354343	69.800279767208	0.002
14	354353	69.850279767208	0.001
14	354477	69.900279767208	0.002
14	354487	69.950279767208	0.001
14	354631	70.000279767208	0.002
14	354640	70.050279767208	0.001
14	354784	70.100279767208	0.002
14	354794	70.150279767208	0.001
14	354911	70.200279767208	0.002
14	354921	70.250279767208	0.001
14	355058	70.300279767208	0.002
14	355067	70.350279767208	0.001
14	355211	70.400279767208	0.002
14	355221	70.450279767208	0.001
14	355344	70.500279767208	0.002
14	355349	70.550279767208	0.001
14	355408	70.600279767208	0.002
14	355413	70.650279767208	0.001
14	355458	70.700279767208	0.002
14	355464	70.750279767208	0.001
14	355509	70.800279767208	0.002
14	355514	70.850279767208	0.001
14	355573	70.900279767208	0.002
14	355578	70.950279767208	0.001
14	355623	71.000279767208	0.002
14	355629	71.050279767208	0.001
14	355674	71.100279767208	0.002
14	355679	71.150279767208	0.001
14	355738	71.200279767208	0.002
14	355743	71.250279767208	0.001
14	355788	71.300279767208	0.002
14	355794	71.350279767208	0.001
14	355839	71.400279767208	0.002
14	355844	71.450279767208	0.001
14	355903	71.500279767208	0.002
14	355908	71.550279767208	0.001
14	355953	71.600279767208	0.002
14	355959	71.650279767208	0.001
14	356004	71.700279767208	0.002
14	356009	71.750279767208	0.001
14	356068	71.800279767208	0.002
14	356073	71.850279767208	0.001
14	356118	71.900279767208	0.002
14	356124	71.950279767208	0.001
14	356169	72.000279767208	0.002
14	356174	72.050279767208	0.001
14	356233	72.100279767208	0.002
14	356238	72.150279767208	0.001
14	356283	72.200279767208	0.002
14	356289	72.250279767208	0.001
14	356334	72.300279767208	0.002
14	356339	72.350279767208	0.001
14	356398	72.400279767208	0.002
14	356403	72.450279767208	0.001
14	356448	72.500279767208	0.002
14	356454	72.550279767208	0.001
14	356499	72.600279767208	0.002
14	356504	72.650279767208	0.001
14	356563	72.700279767208	0.002
14	356568	72.750279767208	0.001
14	356613	72.800279767208	0.002
14	356619	72.850279767208	0.001
14	356664	72.900279767208	0.002
14	356669	72.950279767208	0.001
14	356728	73.000279767208	0.002
14	356733	73.050279767208	0.001
14	356778	73.100279767208	0.002
14	356784	73.150279767208	0.001
14	356829	73.200279767208	0.002
14	356834	73.250279767208	0.001
14	356893	73.300279767208	0.002
14	356898	73.350279767208	0.001
14	356943	73.400279767208	0.002
14	356949	73.450279767208	0.001
14	356994	73.500279767208	0.002
14	356999	73.550279767208	0.001
14	357058	73.600279767208	0.002
14	357059	73.650279767208	0.001
14	357060	73.700279767208	0.002
14	357061	73.750279767208	0.001
14	357062	73.800279767208	0.002
14	357063	73.850279767208	0.001
14	357064	73.900279767208	0.002
14	357065	73.950279767208	0.001
14	357066	74.000279767208	0.002
14	357067	74.050279767208	0.001
14	357068	74.100279767208	0.002
14	357069	74.150279767208	0.001
14	357070	74.200279767208	0.002
14	357071	74.250279767208	0.001
14	357072	74.300279767208	0.002
14	357073	74.350279767208	0.001
14	357074	74.400279767208	0.002
14	357075	74.450279767208	0.001
14	357076	74.500279767208	0.002
14	357077	74.550279767208	0.001
14	357078	74.600279767208	0.002
14	357079	74.650279767208	0.001
14	357080	74.700279767208	0.002
14	357081	74.750279767208	0.001
14	357082	74.800279767208	0.002
14	357083	74.850279767208	0.001
14	357084	74.900279767208	0.002
14	357085	74.950279767208	0.001
14	357086	75.000279767208	0.002
14	357087	75.050279767208	0.001
14	357088	75.100279767208	0.002
14	357089	75.150279767208	0.001
14	357090	75.200279767208	0.002
14	357091	75.250279767208	0.001
14	357092	75.300279767208	0.002
14	357093	75.350279767208	0.001
14	357094	75.400279767208	0.002
14	357095	75.450279767208	0.001
14	357096	75.500279767208	0.002
14	357097	75.550279767208	0.001
14	357098	75.600279767208	0.002
14	357099	75.650279767208	0.001
14	357100	75.700279767208	0.002
14	357101	75.750279767208	0.001
14	357102	75.800279767208	0.002
14	357103	75.850279767208	0.001
14	357104	75.900279767208	0.002
14	357105	75.950279767208	0.001
