version 2
run VoIP-20ms_200B-6-20160923-14:10:09-14603
attr configname VoIP-20ms_200B
attr datetime 20160923-14:10:09
attr experiment VoIP-20ms_200B
attr inifile omnetpp.ini
attr iterationvars ""
attr iterationvars2 $repetition=6
attr measurement ""
attr network SymScenerio
attr processid 14603
attr repetition 6
attr replication #6
attr resultdir results
attr runnumber 6
attr seedset 6
param **.coreDebug false
param **.debug false
param *.**.nic.mac1609_4.bitrate 18Mbps
param *.**.nic.mac1609_4.txPower 20mW
param *.**.nic.mac1609_4.useServiceChannel true
param *.**.nic.phy80211p.analogueModels "xmldoc(\"config.xml\")"
param *.**.nic.phy80211p.decider "xmldoc(\"config.xml\")"
param *.**.nic.phy80211p.sensitivity -89dBm
param *.**.nic.phy80211p.thermalNoise -110dBm
param *.**.nic.phy80211p.usePropagationDelay true
param *.**.nic.phy80211p.useThermalNoise true
param *.annotations.draw false
param *.connectionManager.alpha 2.0
param *.connectionManager.carrierFrequency "5.890e9 Hz"
param *.connectionManager.pMax 20mW
param *.connectionManager.sat -89dBm
param *.connectionManager.sendDirect true
param *.manager.autoShutdown true
param *.manager.host "\"localhost\""
param *.manager.launchConfig "xmldoc(\"map.launchd.xml\")"
param *.manager.margin 25
param *.manager.moduleDisplayString "\"\""
param *.manager.moduleName "\"node\""
param *.manager.moduleType "\"symulacja.veins.nodes.Car\""
param *.manager.port 9999
param *.manager.updateInterval 0.1s
param *.node[*].appl.beaconInterval 1s
param *.node[*].appl.beaconPriority 3
param *.node[*].appl.dataOnSch false
param *.node[*].appl.dataPriority 2
param *.node[*].appl.debug false
param *.node[*].appl.maxOffset 0.005s
param *.node[*].appl.sendBeacons false
param *.node[*].appl.sendData true
param *.node[*].appl.sendVoIP true
param *.node[*].appl.voipInterval 0.020s
param *.node[*].appl.voipLengthBits 1600bit
param *.node[*].appl.voipOnSch true
param *.node[*].appl.voipPriority 3
param *.node[*].applType "\"Sym11p\""
param *.node[*].veinsmobility.x 0
param *.node[*].veinsmobility.y 0
param *.node[*].veinsmobility.z 1.895
param *.node[*].veinsmobilityType "\"symulacja.veins.modules.mobility.traci.TraCIMobility\""
param *.playgroundSizeX 9000m
param *.playgroundSizeY 9000m
param *.playgroundSizeZ 50m
param *.rsu[*].appl.beaconInterval 1s
param *.rsu[*].appl.beaconPriority 3
param *.rsu[*].appl.dataOnSch false
param *.rsu[*].appl.dataPriority 2
param *.rsu[*].appl.debug false
param *.rsu[*].appl.headerLength "256 bit"
param *.rsu[*].appl.maxOffset 0.005s
param *.rsu[*].appl.sendBeacons false
param *.rsu[*].appl.sendData false
param *.rsu[*].appl.sendVoIP false
param *.rsu[*].applType "\"SymRSU11p\""
param *.rsu[0].mobility.x 2160
param *.rsu[0].mobility.y 3100
param *.rsu[0].mobility.z 3
param *.world.use2D false
param *.world.useTorus false

vector 14  SymScenerio.rsu[0].nic.mac1609_4  "Interwały kanałów"  ETV
vector 23  SymScenerio.node[0].veinsmobility  posx  ETV
vector 24  SymScenerio.node[0].veinsmobility  posy  ETV
vector 22  SymScenerio.node[0].nic.mac1609_4  "Interwały kanałów"  ETV
vector 25  SymScenerio.node[0].veinsmobility  speed  ETV
vector 15  SymScenerio.node[0].appl  "TX Packets"  ETV
vector 16  SymScenerio.node[0].appl  "TX Total"  ETV
vector 17  SymScenerio.node[0].appl  Pakietyzacja  ETV
vector 5  SymScenerio.rsu[0].appl  nodeALL:vector  ETV
attr source  nodeALL
attr title  "Opoznienia ALL, vector"
vector 9  SymScenerio.rsu[0].appl  "RX Packet"  ETV
vector 0  SymScenerio.rsu[0].appl  node0:vector  ETV
attr source  node0
attr title  "Opoznienia node0, vector"
vector 26  SymScenerio.node[0].veinsmobility  acceleration  ETV
vector 27  SymScenerio.node[0].veinsmobility  co2emission  ETV
vector 36  SymScenerio.node[1].veinsmobility  posx  ETV
vector 37  SymScenerio.node[1].veinsmobility  posy  ETV
vector 35  SymScenerio.node[1].nic.mac1609_4  "Interwały kanałów"  ETV
vector 28  SymScenerio.node[1].appl  "TX Packets"  ETV
vector 29  SymScenerio.node[1].appl  "TX Total"  ETV
vector 30  SymScenerio.node[1].appl  Pakietyzacja  ETV
vector 1  SymScenerio.rsu[0].appl  node1:vector  ETV
attr source  node1
attr title  "Opoznienia node1, vector"
vector 38  SymScenerio.node[1].veinsmobility  speed  ETV
vector 39  SymScenerio.node[1].veinsmobility  acceleration  ETV
vector 40  SymScenerio.node[1].veinsmobility  co2emission  ETV
vector 49  SymScenerio.node[2].veinsmobility  posx  ETV
vector 50  SymScenerio.node[2].veinsmobility  posy  ETV
vector 48  SymScenerio.node[2].nic.mac1609_4  "Interwały kanałów"  ETV
vector 51  SymScenerio.node[2].veinsmobility  speed  ETV
vector 52  SymScenerio.node[2].veinsmobility  acceleration  ETV
vector 53  SymScenerio.node[2].veinsmobility  co2emission  ETV
vector 41  SymScenerio.node[2].appl  "TX Packets"  ETV
vector 42  SymScenerio.node[2].appl  "TX Total"  ETV
vector 43  SymScenerio.node[2].appl  Pakietyzacja  ETV
vector 2  SymScenerio.rsu[0].appl  node2:vector  ETV
attr source  node2
attr title  "Opoznienia node2, vector"
vector 62  SymScenerio.node[3].veinsmobility  posx  ETV
vector 63  SymScenerio.node[3].veinsmobility  posy  ETV
vector 61  SymScenerio.node[3].nic.mac1609_4  "Interwały kanałów"  ETV
vector 64  SymScenerio.node[3].veinsmobility  speed  ETV
vector 65  SymScenerio.node[3].veinsmobility  acceleration  ETV
vector 66  SymScenerio.node[3].veinsmobility  co2emission  ETV
vector 54  SymScenerio.node[3].appl  "TX Packets"  ETV
vector 55  SymScenerio.node[3].appl  "TX Total"  ETV
vector 56  SymScenerio.node[3].appl  Pakietyzacja  ETV
vector 3  SymScenerio.rsu[0].appl  node3:vector  ETV
attr source  node3
attr title  "Opoznienia node3, vector"
vector 75  SymScenerio.node[4].veinsmobility  posx  ETV
vector 76  SymScenerio.node[4].veinsmobility  posy  ETV
vector 74  SymScenerio.node[4].nic.mac1609_4  "Interwały kanałów"  ETV
vector 77  SymScenerio.node[4].veinsmobility  speed  ETV
vector 67  SymScenerio.node[4].appl  "TX Packets"  ETV
vector 68  SymScenerio.node[4].appl  "TX Total"  ETV
vector 69  SymScenerio.node[4].appl  Pakietyzacja  ETV
vector 4  SymScenerio.rsu[0].appl  node4:vector  ETV
attr source  node4
attr title  "Opoznienia node4, vector"
vector 78  SymScenerio.node[4].veinsmobility  acceleration  ETV
vector 79  SymScenerio.node[4].veinsmobility  co2emission  ETV
17	10	0.223828338161	1.002
17	12	0.243828338161	1.002
17	42	0.263828338161	1.002
17	57	0.283828338161	1.002
17	75	0.303828338161	1.002
17	77	0.323828338161	1.002
17	79	0.343828338161	1.002
17	122	0.363828338161	1.002
17	137	0.383828338161	1.002
17	155	0.403828338161	1.002
17	157	0.423828338161	1.002
17	159	0.443828338161	1.002
17	202	0.463828338161	1.002
17	217	0.483828338161	1.002
17	235	0.503828338161	1.002
17	237	0.523828338161	1.002
17	239	0.543828338161	1.002
17	282	0.563828338161	1.002
17	297	0.583828338161	1.002
17	315	0.603828338161	1.002
17	317	0.623828338161	1.002
17	319	0.643828338161	1.002
17	362	0.663828338161	1.002
17	377	0.683828338161	1.002
17	395	0.703828338161	1.002
17	397	0.723828338161	1.002
17	399	0.743828338161	1.002
17	442	0.763828338161	1.002
17	457	0.783828338161	1.002
17	475	0.803828338161	1.002
17	477	0.823828338161	1.002
17	479	0.843828338161	1.002
17	522	0.863828338161	1.002
17	537	0.883828338161	1.002
17	555	0.903828338161	1.002
17	557	0.923828338161	1.002
17	559	0.943828338161	1.002
17	602	0.963828338161	1.002
17	617	0.983828338161	1.002
17	635	1.003828338161	1.002
17	637	1.023828338161	1.002
17	639	1.043828338161	1.002
17	682	1.063828338161	1.002
17	697	1.083828338161	1.002
17	715	1.103828338161	1.002
17	717	1.123828338161	1.002
17	719	1.143828338161	1.002
17	762	1.163828338161	1.002
17	777	1.183828338161	1.002
17	795	1.203828338161	1.002
17	797	1.223828338161	1.002
17	799	1.243828338161	1.002
17	842	1.263828338161	1.002
17	857	1.283828338161	1.002
17	875	1.303828338161	1.002
17	877	1.323828338161	1.002
17	879	1.343828338161	1.002
17	922	1.363828338161	1.002
17	937	1.383828338161	1.002
17	955	1.403828338161	1.002
17	957	1.423828338161	1.002
17	959	1.443828338161	1.002
17	1002	1.463828338161	1.002
17	1017	1.483828338161	1.002
17	1035	1.503828338161	1.002
17	1037	1.523828338161	1.002
17	1039	1.543828338161	1.002
17	1082	1.563828338161	1.002
17	1097	1.583828338161	1.002
17	1115	1.603828338161	1.002
17	1117	1.623828338161	1.002
17	1119	1.643828338161	1.002
17	1162	1.663828338161	1.002
17	1177	1.683828338161	1.002
17	1195	1.703828338161	1.002
17	1197	1.723828338161	1.002
17	1199	1.743828338161	1.002
17	1242	1.763828338161	1.002
17	1257	1.783828338161	1.002
17	1275	1.803828338161	1.002
17	1277	1.823828338161	1.002
17	1279	1.843828338161	1.002
17	1322	1.863828338161	1.002
17	1337	1.883828338161	1.002
17	1355	1.903828338161	1.002
17	1357	1.923828338161	1.002
17	1359	1.943828338161	1.002
17	1402	1.963828338161	1.002
17	1417	1.983828338161	1.002
17	1435	2.003828338161	1.002
17	1437	2.023828338161	1.002
17	1439	2.043828338161	1.002
17	1482	2.063828338161	1.002
17	1497	2.083828338161	1.002
17	1515	2.103828338161	1.002
17	1517	2.123828338161	1.002
17	1519	2.143828338161	1.002
17	1562	2.163828338161	1.002
17	1577	2.183828338161	1.002
17	1595	2.203828338161	1.002
17	1597	2.223828338161	1.002
17	1599	2.243828338161	1.002
17	1642	2.263828338161	1.002
17	1657	2.283828338161	1.002
17	1675	2.303828338161	1.002
17	1677	2.323828338161	1.002
17	1679	2.343828338161	1.002
17	1722	2.363828338161	1.002
17	1737	2.383828338161	1.002
17	1755	2.403828338161	1.002
17	1757	2.423828338161	1.002
17	1759	2.443828338161	1.002
17	1802	2.463828338161	1.002
17	1817	2.483828338161	1.002
17	1835	2.503828338161	1.002
17	1837	2.523828338161	1.002
17	1839	2.543828338161	1.002
17	1882	2.563828338161	1.002
17	1897	2.583828338161	1.002
17	1915	2.603828338161	1.002
17	1917	2.623828338161	1.002
17	1919	2.643828338161	1.002
17	1962	2.663828338161	1.002
17	1977	2.683828338161	1.002
17	1995	2.703828338161	1.002
17	1997	2.723828338161	1.002
17	1999	2.743828338161	1.002
17	2042	2.763828338161	1.002
17	2057	2.783828338161	1.002
17	2075	2.803828338161	1.002
17	2077	2.823828338161	1.002
17	2079	2.843828338161	1.002
17	2122	2.863828338161	1.002
17	2137	2.883828338161	1.002
17	2155	2.903828338161	1.002
17	2157	2.923828338161	1.002
17	2159	2.943828338161	1.002
17	2202	2.963828338161	1.002
17	2217	2.983828338161	1.002
17	2235	3.003828338161	1.002
17	2237	3.023828338161	1.002
17	2239	3.043828338161	1.002
17	2282	3.063828338161	1.002
17	2297	3.083828338161	1.002
17	2315	3.103828338161	1.002
17	2317	3.123828338161	1.002
17	2319	3.143828338161	1.002
17	2402	3.163828338161	1.002
17	2444	3.183828338161	1.002
17	2471	3.203828338161	1.002
17	2475	3.223828338161	1.002
17	2479	3.243828338161	1.002
17	2619	3.263828338161	1.002
17	2661	3.283828338161	1.002
17	2688	3.303828338161	1.002
17	2692	3.323828338161	1.002
17	2696	3.343828338161	1.002
17	2822	3.363828338161	1.002
17	2864	3.383828338161	1.002
17	2891	3.403828338161	1.002
17	2895	3.423828338161	1.002
17	2899	3.443828338161	1.002
17	3039	3.463828338161	1.002
17	3081	3.483828338161	1.002
17	3108	3.503828338161	1.002
17	3112	3.523828338161	1.002
17	3116	3.543828338161	1.002
17	3249	3.563828338161	1.002
17	3291	3.583828338161	1.002
17	3318	3.603828338161	1.002
17	3322	3.623828338161	1.002
17	3326	3.643828338161	1.002
17	3459	3.663828338161	1.002
17	3501	3.683828338161	1.002
17	3528	3.703828338161	1.002
17	3532	3.723828338161	1.002
17	3536	3.743828338161	1.002
17	3669	3.763828338161	1.002
17	3711	3.783828338161	1.002
17	3738	3.803828338161	1.002
17	3742	3.823828338161	1.002
17	3746	3.843828338161	1.002
17	3879	3.863828338161	1.002
17	3921	3.883828338161	1.002
17	3948	3.903828338161	1.002
17	3952	3.923828338161	1.002
17	3956	3.943828338161	1.002
17	4096	3.963828338161	1.002
17	4138	3.983828338161	1.002
17	4165	4.003828338161	1.002
17	4169	4.023828338161	1.002
17	4173	4.043828338161	1.002
17	4306	4.063828338161	1.002
17	4348	4.083828338161	1.002
17	4375	4.103828338161	1.002
17	4379	4.123828338161	1.002
17	4383	4.143828338161	1.002
17	4516	4.163828338161	1.002
17	4558	4.183828338161	1.002
17	4585	4.203828338161	1.002
17	4589	4.223828338161	1.002
17	4593	4.243828338161	1.002
17	4733	4.263828338161	1.002
17	4775	4.283828338161	1.002
17	4802	4.303828338161	1.002
17	4806	4.323828338161	1.002
17	4810	4.343828338161	1.002
17	4943	4.363828338161	1.002
17	4985	4.383828338161	1.002
17	5012	4.403828338161	1.002
17	5016	4.423828338161	1.002
17	5020	4.443828338161	1.002
17	5153	4.463828338161	1.002
17	5195	4.483828338161	1.002
17	5222	4.503828338161	1.002
17	5226	4.523828338161	1.002
17	5230	4.543828338161	1.002
17	5363	4.563828338161	1.002
17	5405	4.583828338161	1.002
17	5432	4.603828338161	1.002
17	5436	4.623828338161	1.002
17	5440	4.643828338161	1.002
17	5573	4.663828338161	1.002
17	5615	4.683828338161	1.002
17	5642	4.703828338161	1.002
17	5646	4.723828338161	1.002
17	5650	4.743828338161	1.002
17	5790	4.763828338161	1.002
17	5832	4.783828338161	1.002
17	5859	4.803828338161	1.002
17	5863	4.823828338161	1.002
17	5867	4.843828338161	1.002
17	6000	4.863828338161	1.002
17	6042	4.883828338161	1.002
17	6069	4.903828338161	1.002
17	6073	4.923828338161	1.002
17	6077	4.943828338161	1.002
17	6210	4.963828338161	1.002
17	6252	4.983828338161	1.002
17	6279	5.003828338161	1.002
17	6283	5.023828338161	1.002
17	6287	5.043828338161	1.002
17	6427	5.063828338161	1.002
17	6469	5.083828338161	1.002
17	6496	5.103828338161	1.002
17	6500	5.123828338161	1.002
17	6504	5.143828338161	1.002
17	6644	5.163828338161	1.002
17	6686	5.183828338161	1.002
17	6713	5.203828338161	1.002
17	6717	5.223828338161	1.002
17	6721	5.243828338161	1.002
17	6854	5.263828338161	1.002
17	6896	5.283828338161	1.002
17	6923	5.303828338161	1.002
17	6927	5.323828338161	1.002
17	6931	5.343828338161	1.002
17	7064	5.363828338161	1.002
17	7106	5.383828338161	1.002
17	7133	5.403828338161	1.002
17	7137	5.423828338161	1.002
17	7141	5.443828338161	1.002
17	7274	5.463828338161	1.002
17	7316	5.483828338161	1.002
17	7343	5.503828338161	1.002
17	7347	5.523828338161	1.002
17	7351	5.543828338161	1.002
17	7491	5.563828338161	1.002
17	7533	5.583828338161	1.002
17	7560	5.603828338161	1.002
17	7564	5.623828338161	1.002
17	7568	5.643828338161	1.002
17	7701	5.663828338161	1.002
17	7743	5.683828338161	1.002
17	7770	5.703828338161	1.002
17	7774	5.723828338161	1.002
17	7778	5.743828338161	1.002
17	7911	5.763828338161	1.002
17	7953	5.783828338161	1.002
17	7980	5.803828338161	1.002
17	7984	5.823828338161	1.002
17	7988	5.843828338161	1.002
17	8128	5.863828338161	1.002
17	8170	5.883828338161	1.002
17	8197	5.903828338161	1.002
17	8201	5.923828338161	1.002
17	8205	5.943828338161	1.002
17	8338	5.963828338161	1.002
17	8380	5.983828338161	1.002
17	8407	6.003828338161	1.002
17	8411	6.023828338161	1.002
17	8415	6.043828338161	1.002
17	8541	6.063828338161	1.002
17	8583	6.083828338161	1.002
17	8610	6.103828338161	1.002
17	8614	6.123828338161	1.002
17	8618	6.143828338161	1.002
17	8791	6.163828338161	1.002
17	8845	6.183828338161	1.002
17	8879	6.203828338161	1.002
17	8883	6.223828338161	1.002
17	8887	6.243828338161	1.002
17	9060	6.263828338161	1.002
17	9114	6.283828338161	1.002
17	9148	6.303828338161	1.002
17	9152	6.323828338161	1.002
17	9158	6.343828338161	1.002
17	9383	6.363828338161	1.002
17	9464	6.383828338161	1.002
17	9525	6.403828338161	1.002
17	9531	6.423828338161	1.002
17	9537	6.443828338161	1.002
17	9777	6.463828338161	1.002
17	9858	6.483828338161	1.002
17	9919	6.503828338161	1.002
17	9925	6.523828338161	1.002
17	9931	6.543828338161	1.002
17	10161	6.563828338161	1.002
17	10242	6.583828338161	1.002
17	10303	6.603828338161	1.002
17	10309	6.623828338161	1.002
17	10315	6.643828338161	1.002
17	10545	6.663828338161	1.002
17	10626	6.683828338161	1.002
17	10687	6.703828338161	1.002
17	10693	6.723828338161	1.002
17	10699	6.743828338161	1.002
17	10939	6.763828338161	1.002
17	11020	6.783828338161	1.002
17	11081	6.803828338161	1.002
17	11087	6.823828338161	1.002
17	11093	6.843828338161	1.002
17	11326	6.863828338161	1.002
17	11407	6.883828338161	1.002
17	11468	6.903828338161	1.002
17	11474	6.923828338161	1.002
17	11480	6.943828338161	1.002
17	11720	6.963828338161	1.002
17	11801	6.983828338161	1.002
17	11862	7.003828338161	1.002
17	11868	7.023828338161	1.002
17	11874	7.043828338161	1.002
17	12104	7.063828338161	1.002
17	12185	7.083828338161	1.002
17	12246	7.103828338161	1.002
17	12252	7.123828338161	1.002
17	12258	7.143828338161	1.002
17	12508	7.163828338161	1.002
17	12589	7.183828338161	1.002
17	12650	7.203828338161	1.002
17	12656	7.223828338161	1.002
17	12662	7.243828338161	1.002
17	12892	7.263828338161	1.002
17	12973	7.283828338161	1.002
17	13034	7.303828338161	1.002
17	13040	7.323828338161	1.002
17	13046	7.343828338161	1.002
17	13286	7.363828338161	1.002
17	13367	7.383828338161	1.002
17	13428	7.403828338161	1.002
17	13434	7.423828338161	1.002
17	13440	7.443828338161	1.002
17	13690	7.463828338161	1.002
17	13771	7.483828338161	1.002
17	13832	7.503828338161	1.002
17	13838	7.523828338161	1.002
17	13844	7.543828338161	1.002
17	14084	7.563828338161	1.002
17	14165	7.583828338161	1.002
17	14226	7.603828338161	1.002
17	14232	7.623828338161	1.002
17	14238	7.643828338161	1.002
17	14478	7.663828338161	1.002
17	14559	7.683828338161	1.002
17	14620	7.703828338161	1.002
17	14626	7.723828338161	1.002
17	14632	7.743828338161	1.002
17	14872	7.763828338161	1.002
17	14953	7.783828338161	1.002
17	15014	7.803828338161	1.002
17	15020	7.823828338161	1.002
17	15026	7.843828338161	1.002
17	15276	7.863828338161	1.002
17	15357	7.883828338161	1.002
17	15418	7.903828338161	1.002
17	15424	7.923828338161	1.002
17	15430	7.943828338161	1.002
17	15656	7.963828338161	1.002
17	15737	7.983828338161	1.002
17	15798	8.003828338161	1.002
17	15804	8.023828338161	1.002
17	15810	8.043828338161	1.002
17	16050	8.063828338161	1.002
17	16131	8.083828338161	1.002
17	16192	8.103828338161	1.002
17	16198	8.123828338161	1.002
17	16204	8.143828338161	1.002
17	16434	8.163828338161	1.002
17	16515	8.183828338161	1.002
17	16576	8.203828338161	1.002
17	16582	8.223828338161	1.002
17	16588	8.243828338161	1.002
17	16831	8.263828338161	1.002
17	16912	8.283828338161	1.002
17	16973	8.303828338161	1.002
17	16979	8.323828338161	1.002
17	16985	8.343828338161	1.002
17	17235	8.363828338161	1.002
17	17316	8.383828338161	1.002
17	17377	8.403828338161	1.002
17	17383	8.423828338161	1.002
17	17389	8.443828338161	1.002
17	17632	8.463828338161	1.002
17	17713	8.483828338161	1.002
17	17774	8.503828338161	1.002
17	17780	8.523828338161	1.002
17	17786	8.543828338161	1.002
17	18016	8.563828338161	1.002
17	18097	8.583828338161	1.002
17	18158	8.603828338161	1.002
17	18164	8.623828338161	1.002
17	18170	8.643828338161	1.002
17	18410	8.663828338161	1.002
17	18491	8.683828338161	1.002
17	18552	8.703828338161	1.002
17	18558	8.723828338161	1.002
17	18564	8.743828338161	1.002
17	18794	8.763828338161	1.002
17	18875	8.783828338161	1.002
17	18936	8.803828338161	1.002
17	18942	8.823828338161	1.002
17	18948	8.843828338161	1.002
17	19208	8.863828338161	1.002
17	19289	8.883828338161	1.002
17	19350	8.903828338161	1.002
17	19356	8.923828338161	1.002
17	19362	8.943828338161	1.002
17	19592	8.963828338161	1.002
17	19673	8.983828338161	1.002
17	19734	9.003828338161	1.002
17	19740	9.023828338161	1.002
17	19746	9.043828338161	1.002
17	19986	9.063828338161	1.002
17	20067	9.083828338161	1.002
17	20128	9.103828338161	1.002
17	20134	9.123828338161	1.002
17	20140	9.143828338161	1.002
17	20448	9.163828338161	1.002
17	20547	9.183828338161	1.002
17	20621	9.203828338161	1.002
17	20627	9.223828338161	1.002
17	20633	9.243828338161	1.002
17	20916	9.263828338161	1.002
17	21015	9.283828338161	1.002
17	21089	9.303828338161	1.002
17	21095	9.323828338161	1.002
17	21101	9.343828338161	1.002
17	21409	9.363828338161	1.002
17	21508	9.383828338161	1.002
17	21582	9.403828338161	1.002
17	21588	9.423828338161	1.002
17	21594	9.443828338161	1.002
17	21902	9.463828338161	1.002
17	22001	9.483828338161	1.002
17	22075	9.503828338161	1.002
17	22081	9.523828338161	1.002
17	22087	9.543828338161	1.002
17	22369	9.563828338161	1.002
17	22468	9.583828338161	1.002
17	22542	9.603828338161	1.002
17	22548	9.623828338161	1.002
17	22554	9.643828338161	1.002
17	22827	9.663828338161	1.002
17	22959	9.683828338161	1.002
17	23066	9.703828338161	1.002
17	23074	9.723828338161	1.002
17	23082	9.743828338161	1.002
17	23447	9.763828338161	1.002
17	23579	9.783828338161	1.002
17	23686	9.803828338161	1.002
17	23694	9.823828338161	1.002
17	23702	9.843828338161	1.002
17	24057	9.863828338161	1.002
17	24189	9.883828338161	1.002
17	24296	9.903828338161	1.002
17	24304	9.923828338161	1.002
17	24312	9.943828338161	1.002
17	24702	9.963828338161	1.002
17	24834	9.983828338161	1.002
17	24941	10.003828338161	1.002
17	24949	10.023828338161	1.002
17	24957	10.043828338161	1.002
17	25335	10.063828338161	1.002
17	25467	10.083828338161	1.002
17	25574	10.103828338161	1.002
17	25582	10.123828338161	1.002
17	25590	10.143828338161	1.002
17	25980	10.163828338161	1.002
17	26112	10.183828338161	1.002
17	26219	10.203828338161	1.002
17	26227	10.223828338161	1.002
17	26235	10.243828338161	1.002
17	26612	10.263828338161	1.002
17	26744	10.283828338161	1.002
17	26851	10.303828338161	1.002
17	26859	10.323828338161	1.002
17	26867	10.343828338161	1.002
17	27248	10.363828338161	1.002
17	27380	10.383828338161	1.002
17	27487	10.403828338161	1.002
17	27495	10.423828338161	1.002
17	27503	10.443828338161	1.002
17	27897	10.463828338161	1.002
17	28029	10.483828338161	1.002
17	28136	10.503828338161	1.002
17	28144	10.523828338161	1.002
17	28152	10.543828338161	1.002
17	28516	10.563828338161	1.002
17	28648	10.583828338161	1.002
17	28755	10.603828338161	1.002
17	28763	10.623828338161	1.002
17	28771	10.643828338161	1.002
17	29130	10.663828338161	1.002
17	29262	10.683828338161	1.002
17	29369	10.703828338161	1.002
17	29377	10.723828338161	1.002
17	29385	10.743828338161	1.002
17	29788	10.763828338161	1.002
17	29920	10.783828338161	1.002
17	30027	10.803828338161	1.002
17	30035	10.823828338161	1.002
17	30043	10.843828338161	1.002
17	30407	10.863828338161	1.002
17	30539	10.883828338161	1.002
17	30646	10.903828338161	1.002
17	30654	10.923828338161	1.002
17	30662	10.943828338161	1.002
17	31039	10.963828338161	1.002
17	31171	10.983828338161	1.002
17	31278	11.003828338161	1.002
17	31286	11.023828338161	1.002
17	31294	11.043828338161	1.002
17	31671	11.063828338161	1.002
17	31803	11.083828338161	1.002
17	31910	11.103828338161	1.002
17	31918	11.123828338161	1.002
17	31926	11.143828338161	1.002
17	32298	11.163828338161	1.002
17	32430	11.183828338161	1.002
17	32537	11.203828338161	1.002
17	32545	11.223828338161	1.002
17	32553	11.243828338161	1.002
17	32917	11.263828338161	1.002
17	33049	11.283828338161	1.002
17	33156	11.303828338161	1.002
17	33164	11.323828338161	1.002
17	33172	11.343828338161	1.002
17	33553	11.363828338161	1.002
17	33685	11.383828338161	1.002
17	33792	11.403828338161	1.002
17	33800	11.423828338161	1.002
17	33808	11.443828338161	1.002
17	34185	11.463828338161	1.002
17	34317	11.483828338161	1.002
17	34424	11.503828338161	1.002
17	34432	11.523828338161	1.002
17	34440	11.543828338161	1.002
17	34821	11.563828338161	1.002
17	34953	11.583828338161	1.002
17	35060	11.603828338161	1.002
17	35068	11.623828338161	1.002
17	35076	11.643828338161	1.002
17	35453	11.663828338161	1.002
17	35585	11.683828338161	1.002
17	35692	11.703828338161	1.002
17	35700	11.723828338161	1.002
17	35708	11.743828338161	1.002
17	36076	11.763828338161	1.002
17	36208	11.783828338161	1.002
17	36315	11.803828338161	1.002
17	36323	11.823828338161	1.002
17	36331	11.843828338161	1.002
17	36699	11.863828338161	1.002
17	36831	11.883828338161	1.002
17	36938	11.903828338161	1.002
17	36946	11.923828338161	1.002
17	36954	11.943828338161	1.002
17	37331	11.963828338161	1.002
17	37463	11.983828338161	1.002
17	37570	12.003828338161	1.002
17	37578	12.023828338161	1.002
17	37586	12.043828338161	1.002
17	37976	12.063828338161	1.002
17	38108	12.083828338161	1.002
17	38215	12.103828338161	1.002
17	38223	12.123828338161	1.002
17	38231	12.143828338161	1.002
17	38678	12.163828338161	1.002
17	38834	12.183828338161	1.002
17	38960	12.203828338161	1.002
17	38968	12.223828338161	1.002
17	38976	12.243828338161	1.002
17	39451	12.263828338161	1.002
17	39646	12.283828338161	1.002
17	39811	12.303828338161	1.002
17	39821	12.323828338161	1.002
17	39831	12.343828338161	1.002
17	40352	12.363828338161	1.002
17	40547	12.383828338161	1.002
17	40712	12.403828338161	1.002
17	40722	12.423828338161	1.002
17	40732	12.443828338161	1.002
17	41254	12.463828338161	1.002
17	41449	12.483828338161	1.002
17	41614	12.503828338161	1.002
17	41624	12.523828338161	1.002
17	41634	12.543828338161	1.002
17	42157	12.563828338161	1.002
17	42352	12.583828338161	1.002
17	42517	12.603828338161	1.002
17	42527	12.623828338161	1.002
17	42537	12.643828338161	1.002
17	43071	12.663828338161	1.002
17	43266	12.683828338161	1.002
17	43431	12.703828338161	1.002
17	43441	12.723828338161	1.002
17	43451	12.743828338161	1.002
17	43973	12.763828338161	1.002
17	44168	12.783828338161	1.002
17	44333	12.803828338161	1.002
17	44343	12.823828338161	1.002
17	44353	12.843828338161	1.002
17	44891	12.863828338161	1.002
17	45086	12.883828338161	1.002
17	45251	12.903828338161	1.002
17	45261	12.923828338161	1.002
17	45271	12.943828338161	1.002
17	45777	12.963828338161	1.002
17	45972	12.983828338161	1.002
17	46137	13.003828338161	1.002
17	46147	13.023828338161	1.002
17	46157	13.043828338161	1.002
17	46673	13.063828338161	1.002
17	46868	13.083828338161	1.002
17	47033	13.103828338161	1.002
17	47043	13.123828338161	1.002
17	47053	13.143828338161	1.002
17	47570	13.163828338161	1.002
17	47765	13.183828338161	1.002
17	47930	13.203828338161	1.002
17	47940	13.223828338161	1.002
17	47950	13.243828338161	1.002
17	48456	13.263828338161	1.002
17	48651	13.283828338161	1.002
17	48816	13.303828338161	1.002
17	48826	13.323828338161	1.002
17	48836	13.343828338161	1.002
17	49354	13.363828338161	1.002
17	49549	13.383828338161	1.002
17	49714	13.403828338161	1.002
17	49724	13.423828338161	1.002
17	49734	13.443828338161	1.002
17	50251	13.463828338161	1.002
17	50446	13.483828338161	1.002
17	50611	13.503828338161	1.002
17	50621	13.523828338161	1.002
17	50631	13.543828338161	1.002
17	51169	13.563828338161	1.002
17	51364	13.583828338161	1.002
17	51529	13.603828338161	1.002
17	51539	13.623828338161	1.002
17	51549	13.643828338161	1.002
17	52055	13.663828338161	1.002
17	52250	13.683828338161	1.002
17	52415	13.703828338161	1.002
17	52425	13.723828338161	1.002
17	52435	13.743828338161	1.002
17	52970	13.763828338161	1.002
17	53165	13.783828338161	1.002
17	53330	13.803828338161	1.002
17	53340	13.823828338161	1.002
17	53350	13.843828338161	1.002
17	53872	13.863828338161	1.002
17	54067	13.883828338161	1.002
17	54232	13.903828338161	1.002
17	54242	13.923828338161	1.002
17	54252	13.943828338161	1.002
17	54790	13.963828338161	1.002
17	54985	13.983828338161	1.002
17	55150	14.003828338161	1.002
17	55160	14.023828338161	1.002
17	55170	14.043828338161	1.002
17	55687	14.063828338161	1.002
17	55882	14.083828338161	1.002
17	56047	14.103828338161	1.002
17	56057	14.123828338161	1.002
17	56067	14.143828338161	1.002
17	56600	14.163828338161	1.002
17	56795	14.183828338161	1.002
17	56960	14.203828338161	1.002
17	56970	14.223828338161	1.002
17	56980	14.243828338161	1.002
17	57491	14.263828338161	1.002
17	57686	14.283828338161	1.002
17	57851	14.303828338161	1.002
17	57861	14.323828338161	1.002
17	57871	14.343828338161	1.002
17	58388	14.363828338161	1.002
17	58583	14.383828338161	1.002
17	58748	14.403828338161	1.002
17	58758	14.423828338161	1.002
17	58768	14.443828338161	1.002
17	59301	14.463828338161	1.002
17	59496	14.483828338161	1.002
17	59661	14.503828338161	1.002
17	59671	14.523828338161	1.002
17	59681	14.543828338161	1.002
17	60214	14.563828338161	1.002
17	60409	14.583828338161	1.002
17	60574	14.603828338161	1.002
17	60584	14.623828338161	1.002
17	60594	14.643828338161	1.002
17	61105	14.663828338161	1.002
17	61300	14.683828338161	1.002
17	61465	14.703828338161	1.002
17	61475	14.723828338161	1.002
17	61485	14.743828338161	1.002
17	62018	14.763828338161	1.002
17	62213	14.783828338161	1.002
17	62378	14.803828338161	1.002
17	62388	14.823828338161	1.002
17	62398	14.843828338161	1.002
17	62931	14.863828338161	1.002
17	63126	14.883828338161	1.002
17	63291	14.903828338161	1.002
17	63301	14.923828338161	1.002
17	63311	14.943828338161	1.002
17	63817	14.963828338161	1.002
17	64012	14.983828338161	1.002
17	64177	15.003828338161	1.002
17	64187	15.023828338161	1.002
17	64197	15.043828338161	1.002
17	64703	15.063828338161	1.002
17	64898	15.083828338161	1.002
17	65063	15.103828338161	1.002
17	65073	15.123828338161	1.002
17	65083	15.143828338161	1.002
17	65594	15.163828338161	1.002
17	65789	15.183828338161	1.002
17	65954	15.203828338161	1.002
17	65964	15.223828338161	1.002
17	65974	15.243828338161	1.002
17	66475	15.263828338161	1.002
17	66670	15.283828338161	1.002
17	66835	15.303828338161	1.002
17	66845	15.323828338161	1.002
17	66855	15.343828338161	1.002
17	67382	15.363828338161	1.002
17	67577	15.383828338161	1.002
17	67742	15.403828338161	1.002
17	67752	15.423828338161	1.002
17	67762	15.443828338161	1.002
17	68300	15.463828338161	1.002
17	68495	15.483828338161	1.002
17	68660	15.503828338161	1.002
17	68670	15.523828338161	1.002
17	68680	15.543828338161	1.002
17	69208	15.563828338161	1.002
17	69403	15.583828338161	1.002
17	69568	15.603828338161	1.002
17	69578	15.623828338161	1.002
17	69588	15.643828338161	1.002
17	70110	15.663828338161	1.002
17	70305	15.683828338161	1.002
17	70470	15.703828338161	1.002
17	70480	15.723828338161	1.002
17	70490	15.743828338161	1.002
17	71023	15.763828338161	1.002
17	71218	15.783828338161	1.002
17	71383	15.803828338161	1.002
17	71393	15.823828338161	1.002
17	71403	15.843828338161	1.002
17	71952	15.863828338161	1.002
17	72147	15.883828338161	1.002
17	72312	15.903828338161	1.002
17	72322	15.923828338161	1.002
17	72332	15.943828338161	1.002
17	72849	15.963828338161	1.002
17	73044	15.983828338161	1.002
17	73209	16.003828338161	1.002
17	73219	16.023828338161	1.002
17	73229	16.043828338161	1.002
17	73746	16.063828338161	1.002
17	73941	16.083828338161	1.002
17	74106	16.103828338161	1.002
17	74116	16.123828338161	1.002
17	74126	16.143828338161	1.002
17	74659	16.163828338161	1.002
17	74854	16.183828338161	1.002
17	75019	16.203828338161	1.002
17	75029	16.223828338161	1.002
17	75039	16.243828338161	1.002
17	75540	16.263828338161	1.002
17	75735	16.283828338161	1.002
17	75900	16.303828338161	1.002
17	75910	16.323828338161	1.002
17	75920	16.343828338161	1.002
17	76448	16.363828338161	1.002
17	76643	16.383828338161	1.002
17	76808	16.403828338161	1.002
17	76818	16.423828338161	1.002
17	76828	16.443828338161	1.002
17	77339	16.463828338161	1.002
17	77534	16.483828338161	1.002
17	77699	16.503828338161	1.002
17	77709	16.523828338161	1.002
17	77719	16.543828338161	1.002
17	78241	16.563828338161	1.002
17	78436	16.583828338161	1.002
17	78601	16.603828338161	1.002
17	78611	16.623828338161	1.002
17	78621	16.643828338161	1.002
17	79127	16.663828338161	1.002
17	79322	16.683828338161	1.002
17	79487	16.703828338161	1.002
17	79497	16.723828338161	1.002
17	79507	16.743828338161	1.002
17	80018	16.763828338161	1.002
17	80213	16.783828338161	1.002
17	80378	16.803828338161	1.002
17	80388	16.823828338161	1.002
17	80398	16.843828338161	1.002
17	80904	16.863828338161	1.002
17	81099	16.883828338161	1.002
17	81264	16.903828338161	1.002
17	81274	16.923828338161	1.002
17	81284	16.943828338161	1.002
17	81801	16.963828338161	1.002
17	81996	16.983828338161	1.002
17	82161	17.003828338161	1.002
17	82171	17.023828338161	1.002
17	82181	17.043828338161	1.002
17	82703	17.063828338161	1.002
17	82898	17.083828338161	1.002
17	83063	17.103828338161	1.002
17	83073	17.123828338161	1.002
17	83083	17.143828338161	1.002
17	83611	17.163828338161	1.002
17	83806	17.183828338161	1.002
17	83971	17.203828338161	1.002
17	83981	17.223828338161	1.002
17	83991	17.243828338161	1.002
17	84518	17.263828338161	1.002
17	84713	17.283828338161	1.002
17	84878	17.303828338161	1.002
17	84888	17.323828338161	1.002
17	84898	17.343828338161	1.002
17	85415	17.363828338161	1.002
17	85610	17.383828338161	1.002
17	85775	17.403828338161	1.002
17	85785	17.423828338161	1.002
17	85795	17.443828338161	1.002
17	86344	17.463828338161	1.002
17	86539	17.483828338161	1.002
17	86704	17.503828338161	1.002
17	86714	17.523828338161	1.002
17	86724	17.543828338161	1.002
17	87241	17.563828338161	1.002
17	87436	17.583828338161	1.002
17	87601	17.603828338161	1.002
17	87611	17.623828338161	1.002
17	87621	17.643828338161	1.002
17	88154	17.663828338161	1.002
17	88349	17.683828338161	1.002
17	88514	17.703828338161	1.002
17	88524	17.723828338161	1.002
17	88534	17.743828338161	1.002
17	89067	17.763828338161	1.002
17	89262	17.783828338161	1.002
17	89427	17.803828338161	1.002
17	89437	17.823828338161	1.002
17	89447	17.843828338161	1.002
17	89974	17.863828338161	1.002
17	90169	17.883828338161	1.002
17	90334	17.903828338161	1.002
17	90344	17.923828338161	1.002
17	90354	17.943828338161	1.002
17	90871	17.963828338161	1.002
17	91066	17.983828338161	1.002
17	91231	18.003828338161	1.002
17	91241	18.023828338161	1.002
17	91251	18.043828338161	1.002
17	91805	18.063828338161	1.002
17	92000	18.083828338161	1.002
17	92165	18.103828338161	1.002
17	92175	18.123828338161	1.002
17	92185	18.143828338161	1.002
17	92702	18.163828338161	1.002
17	92897	18.183828338161	1.002
17	93062	18.203828338161	1.002
17	93072	18.223828338161	1.002
17	93082	18.243828338161	1.002
17	93604	18.263828338161	1.002
17	93799	18.283828338161	1.002
17	93964	18.303828338161	1.002
17	93974	18.323828338161	1.002
17	93984	18.343828338161	1.002
17	94517	18.363828338161	1.002
17	94712	18.383828338161	1.002
17	94877	18.403828338161	1.002
17	94887	18.423828338161	1.002
17	94897	18.443828338161	1.002
17	95408	18.463828338161	1.002
17	95603	18.483828338161	1.002
17	95768	18.503828338161	1.002
17	95778	18.523828338161	1.002
17	95788	18.543828338161	1.002
17	96321	18.563828338161	1.002
17	96516	18.583828338161	1.002
17	96681	18.603828338161	1.002
17	96691	18.623828338161	1.002
17	96701	18.643828338161	1.002
17	97223	18.663828338161	1.002
17	97418	18.683828338161	1.002
17	97583	18.703828338161	1.002
17	97593	18.723828338161	1.002
17	97603	18.743828338161	1.002
17	98152	18.763828338161	1.002
17	98347	18.783828338161	1.002
17	98512	18.803828338161	1.002
17	98522	18.823828338161	1.002
17	98532	18.843828338161	1.002
17	99060	18.863828338161	1.002
17	99255	18.883828338161	1.002
17	99420	18.903828338161	1.002
17	99430	18.923828338161	1.002
17	99440	18.943828338161	1.002
17	99941	18.963828338161	1.002
17	100136	18.983828338161	1.002
17	100301	19.003828338161	1.002
17	100311	19.023828338161	1.002
17	100321	19.043828338161	1.002
17	100854	19.063828338161	1.002
17	101049	19.083828338161	1.002
17	101214	19.103828338161	1.002
17	101224	19.123828338161	1.002
17	101234	19.143828338161	1.002
17	101740	19.163828338161	1.002
17	101935	19.183828338161	1.002
17	102100	19.203828338161	1.002
17	102110	19.223828338161	1.002
17	102120	19.243828338161	1.002
17	102637	19.263828338161	1.002
17	102832	19.283828338161	1.002
17	102997	19.303828338161	1.002
17	103007	19.323828338161	1.002
17	103017	19.343828338161	1.002
17	103523	19.363828338161	1.002
17	103718	19.383828338161	1.002
17	103883	19.403828338161	1.002
17	103893	19.423828338161	1.002
17	103903	19.443828338161	1.002
17	104425	19.463828338161	1.002
17	104620	19.483828338161	1.002
17	104785	19.503828338161	1.002
17	104795	19.523828338161	1.002
17	104805	19.543828338161	1.002
17	105327	19.563828338161	1.002
17	105522	19.583828338161	1.002
17	105687	19.603828338161	1.002
17	105697	19.623828338161	1.002
17	105707	19.643828338161	1.002
17	106219	19.663828338161	1.002
17	106414	19.683828338161	1.002
17	106579	19.703828338161	1.002
17	106589	19.723828338161	1.002
17	106599	19.743828338161	1.002
17	107121	19.763828338161	1.002
17	107316	19.783828338161	1.002
17	107481	19.803828338161	1.002
17	107491	19.823828338161	1.002
17	107501	19.843828338161	1.002
17	108034	19.863828338161	1.002
17	108229	19.883828338161	1.002
17	108394	19.903828338161	1.002
17	108404	19.923828338161	1.002
17	108414	19.943828338161	1.002
17	108920	19.963828338161	1.002
17	109115	19.983828338161	1.002
17	109280	20.003828338161	1.002
17	109290	20.023828338161	1.002
17	109300	20.043828338161	1.002
17	109817	20.063828338161	1.002
17	110012	20.083828338161	1.002
17	110177	20.103828338161	1.002
17	110187	20.123828338161	1.002
17	110197	20.143828338161	1.002
17	110708	20.163828338161	1.002
17	110903	20.183828338161	1.002
17	111068	20.203828338161	1.002
17	111078	20.223828338161	1.002
17	111088	20.243828338161	1.002
17	111626	20.263828338161	1.002
17	111821	20.283828338161	1.002
17	111986	20.303828338161	1.002
17	111996	20.323828338161	1.002
17	112006	20.343828338161	1.002
17	112517	20.363828338161	1.002
17	112712	20.383828338161	1.002
17	112877	20.403828338161	1.002
17	112887	20.423828338161	1.002
17	112897	20.443828338161	1.002
17	113430	20.463828338161	1.002
17	113625	20.483828338161	1.002
17	113790	20.503828338161	1.002
17	113800	20.523828338161	1.002
17	113810	20.543828338161	1.002
17	114338	20.563828338161	1.002
17	114533	20.583828338161	1.002
17	114698	20.603828338161	1.002
17	114708	20.623828338161	1.002
17	114718	20.643828338161	1.002
17	115256	20.663828338161	1.002
17	115451	20.683828338161	1.002
17	115616	20.703828338161	1.002
17	115626	20.723828338161	1.002
17	115636	20.743828338161	1.002
17	116153	20.763828338161	1.002
17	116348	20.783828338161	1.002
17	116513	20.803828338161	1.002
17	116523	20.823828338161	1.002
17	116533	20.843828338161	1.002
17	117044	20.863828338161	1.002
17	117239	20.883828338161	1.002
17	117404	20.903828338161	1.002
17	117414	20.923828338161	1.002
17	117424	20.943828338161	1.002
17	117941	20.963828338161	1.002
17	118136	20.983828338161	1.002
17	118301	21.003828338161	1.002
17	118311	21.023828338161	1.002
17	118321	21.043828338161	1.002
17	118854	21.063828338161	1.002
17	119049	21.083828338161	1.002
17	119214	21.103828338161	1.002
17	119224	21.123828338161	1.002
17	119234	21.143828338161	1.002
17	119756	21.163828338161	1.002
17	119951	21.183828338161	1.002
17	120116	21.203828338161	1.002
17	120126	21.223828338161	1.002
17	120136	21.243828338161	1.002
17	120669	21.263828338161	1.002
17	120864	21.283828338161	1.002
17	121029	21.303828338161	1.002
17	121039	21.323828338161	1.002
17	121049	21.343828338161	1.002
17	121582	21.363828338161	1.002
17	121777	21.383828338161	1.002
17	121942	21.403828338161	1.002
17	121952	21.423828338161	1.002
17	121962	21.443828338161	1.002
17	122479	21.463828338161	1.002
17	122674	21.483828338161	1.002
17	122839	21.503828338161	1.002
17	122849	21.523828338161	1.002
17	122859	21.543828338161	1.002
17	123365	21.563828338161	1.002
17	123560	21.583828338161	1.002
17	123725	21.603828338161	1.002
17	123735	21.623828338161	1.002
17	123745	21.643828338161	1.002
17	124310	21.663828338161	1.002
17	124505	21.683828338161	1.002
17	124670	21.703828338161	1.002
17	124680	21.723828338161	1.002
17	124690	21.743828338161	1.002
17	125223	21.763828338161	1.002
17	125418	21.783828338161	1.002
17	125583	21.803828338161	1.002
17	125593	21.823828338161	1.002
17	125603	21.843828338161	1.002
17	126125	21.863828338161	1.002
17	126320	21.883828338161	1.002
17	126485	21.903828338161	1.002
17	126495	21.923828338161	1.002
17	126505	21.943828338161	1.002
17	127038	21.963828338161	1.002
17	127233	21.983828338161	1.002
17	127398	22.003828338161	1.002
17	127408	22.023828338161	1.002
17	127418	22.043828338161	1.002
17	127940	22.063828338161	1.002
17	128135	22.083828338161	1.002
17	128300	22.103828338161	1.002
17	128310	22.123828338161	1.002
17	128320	22.143828338161	1.002
17	128842	22.163828338161	1.002
17	129037	22.183828338161	1.002
17	129202	22.203828338161	1.002
17	129212	22.223828338161	1.002
17	129222	22.243828338161	1.002
17	129749	22.263828338161	1.002
17	129944	22.283828338161	1.002
17	130109	22.303828338161	1.002
17	130119	22.323828338161	1.002
17	130129	22.343828338161	1.002
17	130635	22.363828338161	1.002
17	130830	22.383828338161	1.002
17	130995	22.403828338161	1.002
17	131005	22.423828338161	1.002
17	131015	22.443828338161	1.002
17	131521	22.463828338161	1.002
17	131716	22.483828338161	1.002
17	131881	22.503828338161	1.002
17	131891	22.523828338161	1.002
17	131901	22.543828338161	1.002
17	132455	22.563828338161	1.002
17	132650	22.583828338161	1.002
17	132815	22.603828338161	1.002
17	132825	22.623828338161	1.002
17	132835	22.643828338161	1.002
17	133373	22.663828338161	1.002
17	133568	22.683828338161	1.002
17	133733	22.703828338161	1.002
17	133743	22.723828338161	1.002
17	133753	22.743828338161	1.002
17	134281	22.763828338161	1.002
17	134476	22.783828338161	1.002
17	134641	22.803828338161	1.002
17	134651	22.823828338161	1.002
17	134661	22.843828338161	1.002
17	135178	22.863828338161	1.002
17	135373	22.883828338161	1.002
17	135538	22.903828338161	1.002
17	135548	22.923828338161	1.002
17	135558	22.943828338161	1.002
17	136080	22.963828338161	1.002
17	136275	22.983828338161	1.002
17	136440	23.003828338161	1.002
17	136450	23.023828338161	1.002
17	136460	23.043828338161	1.002
17	136988	23.063828338161	1.002
17	137183	23.083828338161	1.002
17	137348	23.103828338161	1.002
17	137358	23.123828338161	1.002
17	137368	23.143828338161	1.002
17	137885	23.163828338161	1.002
17	138080	23.183828338161	1.002
17	138245	23.203828338161	1.002
17	138255	23.223828338161	1.002
17	138265	23.243828338161	1.002
17	138771	23.263828338161	1.002
17	138966	23.283828338161	1.002
17	139131	23.303828338161	1.002
17	139141	23.323828338161	1.002
17	139151	23.343828338161	1.002
17	139657	23.363828338161	1.002
17	139852	23.383828338161	1.002
17	140017	23.403828338161	1.002
17	140027	23.423828338161	1.002
17	140037	23.443828338161	1.002
17	140554	23.463828338161	1.002
17	140749	23.483828338161	1.002
17	140914	23.503828338161	1.002
17	140924	23.523828338161	1.002
17	140934	23.543828338161	1.002
17	141467	23.563828338161	1.002
17	141662	23.583828338161	1.002
17	141827	23.603828338161	1.002
17	141837	23.623828338161	1.002
17	141847	23.643828338161	1.002
17	142396	23.663828338161	1.002
17	142591	23.683828338161	1.002
17	142756	23.703828338161	1.002
17	142766	23.723828338161	1.002
17	142776	23.743828338161	1.002
17	143298	23.763828338161	1.002
17	143493	23.783828338161	1.002
17	143658	23.803828338161	1.002
17	143668	23.823828338161	1.002
17	143678	23.843828338161	1.002
17	144216	23.863828338161	1.002
17	144411	23.883828338161	1.002
17	144576	23.903828338161	1.002
17	144586	23.923828338161	1.002
17	144596	23.943828338161	1.002
17	145134	23.963828338161	1.002
17	145329	23.983828338161	1.002
17	145494	24.003828338161	1.002
17	145504	24.023828338161	1.002
17	145514	24.043828338161	1.002
17	146058	24.063828338161	1.002
17	146253	24.083828338161	1.002
17	146418	24.103828338161	1.002
17	146428	24.123828338161	1.002
17	146438	24.143828338161	1.002
17	146944	24.163828338161	1.002
17	147139	24.183828338161	1.002
17	147304	24.203828338161	1.002
17	147314	24.223828338161	1.002
17	147324	24.243828338161	1.002
17	147846	24.263828338161	1.002
17	148041	24.283828338161	1.002
17	148206	24.303828338161	1.002
17	148216	24.323828338161	1.002
17	148226	24.343828338161	1.002
17	148743	24.363828338161	1.002
17	148938	24.383828338161	1.002
17	149103	24.403828338161	1.002
17	149113	24.423828338161	1.002
17	149123	24.443828338161	1.002
17	149667	24.463828338161	1.002
17	149862	24.483828338161	1.002
17	150027	24.503828338161	1.002
17	150037	24.523828338161	1.002
17	150047	24.543828338161	1.002
17	150569	24.563828338161	1.002
17	150764	24.583828338161	1.002
17	150929	24.603828338161	1.002
17	150939	24.623828338161	1.002
17	150949	24.643828338161	1.002
17	151482	24.663828338161	1.002
17	151677	24.683828338161	1.002
17	151842	24.703828338161	1.002
17	151852	24.723828338161	1.002
17	151862	24.743828338161	1.002
17	152384	24.763828338161	1.002
17	152579	24.783828338161	1.002
17	152744	24.803828338161	1.002
17	152754	24.823828338161	1.002
17	152764	24.843828338161	1.002
17	153292	24.863828338161	1.002
17	153487	24.883828338161	1.002
17	153652	24.903828338161	1.002
17	153662	24.923828338161	1.002
17	153672	24.943828338161	1.002
17	154189	24.963828338161	1.002
17	154384	24.983828338161	1.002
17	154549	25.003828338161	1.002
17	154559	25.023828338161	1.002
17	154569	25.043828338161	1.002
17	155086	25.063828338161	1.002
17	155281	25.083828338161	1.002
17	155446	25.103828338161	1.002
17	155456	25.123828338161	1.002
17	155466	25.143828338161	1.002
17	155972	25.163828338161	1.002
17	156167	25.183828338161	1.002
17	156332	25.203828338161	1.002
17	156342	25.223828338161	1.002
17	156352	25.243828338161	1.002
17	156874	25.263828338161	1.002
17	157069	25.283828338161	1.002
17	157234	25.303828338161	1.002
17	157244	25.323828338161	1.002
17	157254	25.343828338161	1.002
17	157803	25.363828338161	1.002
17	157998	25.383828338161	1.002
17	158163	25.403828338161	1.002
17	158173	25.423828338161	1.002
17	158183	25.443828338161	1.002
17	158716	25.463828338161	1.002
17	158911	25.483828338161	1.002
17	159076	25.503828338161	1.002
17	159086	25.523828338161	1.002
17	159096	25.543828338161	1.002
17	159602	25.563828338161	1.002
17	159797	25.583828338161	1.002
17	159962	25.603828338161	1.002
17	159972	25.623828338161	1.002
17	159982	25.643828338161	1.002
17	160510	25.663828338161	1.002
17	160705	25.683828338161	1.002
17	160870	25.703828338161	1.002
17	160880	25.723828338161	1.002
17	160890	25.743828338161	1.002
17	161412	25.763828338161	1.002
17	161607	25.783828338161	1.002
17	161772	25.803828338161	1.002
17	161782	25.823828338161	1.002
17	161792	25.843828338161	1.002
17	162352	25.863828338161	1.002
17	162547	25.883828338161	1.002
17	162712	25.903828338161	1.002
17	162722	25.923828338161	1.002
17	162732	25.943828338161	1.002
17	163260	25.963828338161	1.002
17	163455	25.983828338161	1.002
17	163620	26.003828338161	1.002
17	163630	26.023828338161	1.002
17	163640	26.043828338161	1.002
17	164157	26.063828338161	1.002
17	164352	26.083828338161	1.002
17	164517	26.103828338161	1.002
17	164527	26.123828338161	1.002
17	164537	26.143828338161	1.002
17	165054	26.163828338161	1.002
17	165249	26.183828338161	1.002
17	165414	26.203828338161	1.002
17	165424	26.223828338161	1.002
17	165434	26.243828338161	1.002
17	165972	26.263828338161	1.002
17	166167	26.283828338161	1.002
17	166332	26.303828338161	1.002
17	166342	26.323828338161	1.002
17	166352	26.343828338161	1.002
17	166885	26.363828338161	1.002
17	167080	26.383828338161	1.002
17	167245	26.403828338161	1.002
17	167255	26.423828338161	1.002
17	167265	26.443828338161	1.002
17	167771	26.463828338161	1.002
17	167966	26.483828338161	1.002
17	168131	26.503828338161	1.002
17	168141	26.523828338161	1.002
17	168151	26.543828338161	1.002
17	168668	26.563828338161	1.002
17	168863	26.583828338161	1.002
17	169028	26.603828338161	1.002
17	169038	26.623828338161	1.002
17	169048	26.643828338161	1.002
17	169581	26.663828338161	1.002
17	169776	26.683828338161	1.002
17	169941	26.703828338161	1.002
17	169951	26.723828338161	1.002
17	169961	26.743828338161	1.002
17	170489	26.763828338161	1.002
17	170684	26.783828338161	1.002
17	170849	26.803828338161	1.002
17	170859	26.823828338161	1.002
17	170869	26.843828338161	1.002
17	171391	26.863828338161	1.002
17	171586	26.883828338161	1.002
17	171751	26.903828338161	1.002
17	171761	26.923828338161	1.002
17	171771	26.943828338161	1.002
17	172277	26.963828338161	1.002
17	172472	26.983828338161	1.002
17	172637	27.003828338161	1.002
17	172647	27.023828338161	1.002
17	172657	27.043828338161	1.002
17	173179	27.063828338161	1.002
17	173374	27.083828338161	1.002
17	173539	27.103828338161	1.002
17	173549	27.123828338161	1.002
17	173559	27.143828338161	1.002
17	174097	27.163828338161	1.002
17	174292	27.183828338161	1.002
17	174457	27.203828338161	1.002
17	174467	27.223828338161	1.002
17	174477	27.243828338161	1.002
17	174988	27.263828338161	1.002
17	175183	27.283828338161	1.002
17	175348	27.303828338161	1.002
17	175358	27.323828338161	1.002
17	175368	27.343828338161	1.002
17	175912	27.363828338161	1.002
17	176107	27.383828338161	1.002
17	176272	27.403828338161	1.002
17	176282	27.423828338161	1.002
17	176292	27.443828338161	1.002
17	176825	27.463828338161	1.002
17	177020	27.483828338161	1.002
17	177185	27.503828338161	1.002
17	177195	27.523828338161	1.002
17	177205	27.543828338161	1.002
17	177722	27.563828338161	1.002
17	177917	27.583828338161	1.002
17	178082	27.603828338161	1.002
17	178092	27.623828338161	1.002
17	178102	27.643828338161	1.002
17	178635	27.663828338161	1.002
17	178830	27.683828338161	1.002
17	178995	27.703828338161	1.002
17	179005	27.723828338161	1.002
17	179015	27.743828338161	1.002
17	179548	27.763828338161	1.002
17	179743	27.783828338161	1.002
17	179908	27.803828338161	1.002
17	179918	27.823828338161	1.002
17	179928	27.843828338161	1.002
17	180461	27.863828338161	1.002
17	180656	27.883828338161	1.002
17	180821	27.903828338161	1.002
17	180831	27.923828338161	1.002
17	180841	27.943828338161	1.002
17	181374	27.963828338161	1.002
17	181569	27.983828338161	1.002
17	181734	28.003828338161	1.002
17	181744	28.023828338161	1.002
17	181754	28.043828338161	1.002
17	182265	28.063828338161	1.002
17	182460	28.083828338161	1.002
17	182625	28.103828338161	1.002
17	182635	28.123828338161	1.002
17	182645	28.143828338161	1.002
17	183188	28.163828338161	1.002
17	183383	28.183828338161	1.002
17	183548	28.203828338161	1.002
17	183558	28.223828338161	1.002
17	183568	28.243828338161	1.002
17	184096	28.263828338161	1.002
17	184291	28.283828338161	1.002
17	184456	28.303828338161	1.002
17	184466	28.323828338161	1.002
17	184476	28.343828338161	1.002
17	184982	28.363828338161	1.002
17	185177	28.383828338161	1.002
17	185342	28.403828338161	1.002
17	185352	28.423828338161	1.002
17	185362	28.443828338161	1.002
17	185906	28.463828338161	1.002
17	186101	28.483828338161	1.002
17	186266	28.503828338161	1.002
17	186276	28.523828338161	1.002
17	186286	28.543828338161	1.002
17	186808	28.563828338161	1.002
17	187003	28.583828338161	1.002
17	187168	28.603828338161	1.002
17	187178	28.623828338161	1.002
17	187188	28.643828338161	1.002
17	187721	28.663828338161	1.002
17	187916	28.683828338161	1.002
17	188081	28.703828338161	1.002
17	188091	28.723828338161	1.002
17	188101	28.743828338161	1.002
17	188634	28.763828338161	1.002
17	188829	28.783828338161	1.002
17	188994	28.803828338161	1.002
17	189004	28.823828338161	1.002
17	189014	28.843828338161	1.002
17	189520	28.863828338161	1.002
17	189715	28.883828338161	1.002
17	189880	28.903828338161	1.002
17	189890	28.923828338161	1.002
17	189900	28.943828338161	1.002
17	190438	28.963828338161	1.002
17	190633	28.983828338161	1.002
17	190798	29.003828338161	1.002
17	190808	29.023828338161	1.002
17	190818	29.043828338161	1.002
17	191329	29.063828338161	1.002
17	191524	29.083828338161	1.002
17	191689	29.103828338161	1.002
17	191699	29.123828338161	1.002
17	191709	29.143828338161	1.002
17	192253	29.163828338161	1.002
17	192448	29.183828338161	1.002
17	192613	29.203828338161	1.002
17	192623	29.223828338161	1.002
17	192633	29.243828338161	1.002
17	193177	29.263828338161	1.002
17	193372	29.283828338161	1.002
17	193537	29.303828338161	1.002
17	193547	29.323828338161	1.002
17	193557	29.343828338161	1.002
17	194084	29.363828338161	1.002
17	194279	29.383828338161	1.002
17	194444	29.403828338161	1.002
17	194454	29.423828338161	1.002
17	194464	29.443828338161	1.002
17	194986	29.463828338161	1.002
17	195181	29.483828338161	1.002
17	195346	29.503828338161	1.002
17	195356	29.523828338161	1.002
17	195366	29.543828338161	1.002
17	195888	29.563828338161	1.002
17	196083	29.583828338161	1.002
17	196248	29.603828338161	1.002
17	196258	29.623828338161	1.002
17	196268	29.643828338161	1.002
17	196795	29.663828338161	1.002
17	196990	29.683828338161	1.002
17	197155	29.703828338161	1.002
17	197165	29.723828338161	1.002
17	197175	29.743828338161	1.002
17	197676	29.763828338161	1.002
17	197871	29.783828338161	1.002
17	198036	29.803828338161	1.002
17	198046	29.823828338161	1.002
17	198056	29.843828338161	1.002
17	198567	29.863828338161	1.002
17	198762	29.883828338161	1.002
17	198927	29.903828338161	1.002
17	198937	29.923828338161	1.002
17	198947	29.943828338161	1.002
17	199469	29.963828338161	1.002
17	199664	29.983828338161	1.002
17	199829	30.003828338161	1.002
17	199839	30.023828338161	1.002
17	199849	30.043828338161	1.002
17	200366	30.063828338161	1.002
17	200561	30.083828338161	1.002
17	200726	30.103828338161	1.002
17	200736	30.123828338161	1.002
17	200746	30.143828338161	1.002
17	201252	30.163828338161	1.002
17	201447	30.183828338161	1.002
17	201612	30.203828338161	1.002
17	201622	30.223828338161	1.002
17	201632	30.243828338161	1.002
17	202143	30.263828338161	1.002
17	202338	30.283828338161	1.002
17	202503	30.303828338161	1.002
17	202513	30.323828338161	1.002
17	202523	30.343828338161	1.002
17	203034	30.363828338161	1.002
17	203229	30.383828338161	1.002
17	203394	30.403828338161	1.002
17	203404	30.423828338161	1.002
17	203414	30.443828338161	1.002
17	203942	30.463828338161	1.002
17	204137	30.483828338161	1.002
17	204302	30.503828338161	1.002
17	204312	30.523828338161	1.002
17	204322	30.543828338161	1.002
17	204860	30.563828338161	1.002
17	205055	30.583828338161	1.002
17	205220	30.603828338161	1.002
17	205230	30.623828338161	1.002
17	205240	30.643828338161	1.002
17	205789	30.663828338161	1.002
17	205984	30.683828338161	1.002
17	206149	30.703828338161	1.002
17	206159	30.723828338161	1.002
17	206169	30.743828338161	1.002
17	206723	30.763828338161	1.002
17	206918	30.783828338161	1.002
17	207083	30.803828338161	1.002
17	207093	30.823828338161	1.002
17	207103	30.843828338161	1.002
17	207630	30.863828338161	1.002
17	207825	30.883828338161	1.002
17	207990	30.903828338161	1.002
17	208000	30.923828338161	1.002
17	208010	30.943828338161	1.002
17	208543	30.963828338161	1.002
17	208738	30.983828338161	1.002
17	208903	31.003828338161	1.002
17	208913	31.023828338161	1.002
17	208923	31.043828338161	1.002
17	209456	31.063828338161	1.002
17	209651	31.083828338161	1.002
17	209816	31.103828338161	1.002
17	209826	31.123828338161	1.002
17	209836	31.143828338161	1.002
17	210385	31.163828338161	1.002
17	210580	31.183828338161	1.002
17	210745	31.203828338161	1.002
17	210755	31.223828338161	1.002
17	210765	31.243828338161	1.002
17	211298	31.263828338161	1.002
17	211493	31.283828338161	1.002
17	211658	31.303828338161	1.002
17	211668	31.323828338161	1.002
17	211678	31.343828338161	1.002
17	212211	31.363828338161	1.002
17	212406	31.383828338161	1.002
17	212571	31.403828338161	1.002
17	212581	31.423828338161	1.002
17	212591	31.443828338161	1.002
17	213092	31.463828338161	1.002
17	213287	31.483828338161	1.002
17	213452	31.503828338161	1.002
17	213462	31.523828338161	1.002
17	213472	31.543828338161	1.002
17	213983	31.563828338161	1.002
17	214178	31.583828338161	1.002
17	214343	31.603828338161	1.002
17	214353	31.623828338161	1.002
17	214363	31.643828338161	1.002
17	214912	31.663828338161	1.002
17	215107	31.683828338161	1.002
17	215272	31.703828338161	1.002
17	215282	31.723828338161	1.002
17	215292	31.743828338161	1.002
17	215841	31.763828338161	1.002
17	216036	31.783828338161	1.002
17	216201	31.803828338161	1.002
17	216211	31.823828338161	1.002
17	216221	31.843828338161	1.002
17	216738	31.863828338161	1.002
17	216933	31.883828338161	1.002
17	217098	31.903828338161	1.002
17	217108	31.923828338161	1.002
17	217118	31.943828338161	1.002
17	217630	31.963828338161	1.002
17	217825	31.983828338161	1.002
17	217990	32.003828338161	1.002
17	218000	32.023828338161	1.002
17	218010	32.043828338161	1.002
17	218543	32.063828338161	1.002
17	218738	32.083828338161	1.002
17	218903	32.103828338161	1.002
17	218913	32.123828338161	1.002
17	218923	32.143828338161	1.002
17	219434	32.163828338161	1.002
17	219629	32.183828338161	1.002
17	219794	32.203828338161	1.002
17	219804	32.223828338161	1.002
17	219814	32.243828338161	1.002
17	220347	32.263828338161	1.002
17	220542	32.283828338161	1.002
17	220707	32.303828338161	1.002
17	220717	32.323828338161	1.002
17	220727	32.343828338161	1.002
17	221260	32.363828338161	1.002
17	221455	32.383828338161	1.002
17	221620	32.403828338161	1.002
17	221630	32.423828338161	1.002
17	221640	32.443828338161	1.002
17	222151	32.463828338161	1.002
17	222346	32.483828338161	1.002
17	222511	32.503828338161	1.002
17	222521	32.523828338161	1.002
17	222531	32.543828338161	1.002
17	223059	32.563828338161	1.002
17	223254	32.583828338161	1.002
17	223419	32.603828338161	1.002
17	223429	32.623828338161	1.002
17	223439	32.643828338161	1.002
17	223956	32.663828338161	1.002
17	224151	32.683828338161	1.002
17	224316	32.703828338161	1.002
17	224326	32.723828338161	1.002
17	224336	32.743828338161	1.002
17	224869	32.763828338161	1.002
17	225064	32.783828338161	1.002
17	225229	32.803828338161	1.002
17	225239	32.823828338161	1.002
17	225249	32.843828338161	1.002
17	225793	32.863828338161	1.002
17	225988	32.883828338161	1.002
17	226153	32.903828338161	1.002
17	226163	32.923828338161	1.002
17	226173	32.943828338161	1.002
17	226701	32.963828338161	1.002
17	226896	32.983828338161	1.002
17	227061	33.003828338161	1.002
17	227071	33.023828338161	1.002
17	227081	33.043828338161	1.002
17	227608	33.063828338161	1.002
17	227803	33.083828338161	1.002
17	227968	33.103828338161	1.002
17	227978	33.123828338161	1.002
17	227988	33.143828338161	1.002
17	228515	33.163828338161	1.002
17	228710	33.183828338161	1.002
17	228875	33.203828338161	1.002
17	228885	33.223828338161	1.002
17	228895	33.243828338161	1.002
17	229401	33.263828338161	1.002
17	229596	33.283828338161	1.002
17	229761	33.303828338161	1.002
17	229771	33.323828338161	1.002
17	229781	33.343828338161	1.002
17	230303	33.363828338161	1.002
17	230498	33.383828338161	1.002
17	230663	33.403828338161	1.002
17	230673	33.423828338161	1.002
17	230683	33.443828338161	1.002
17	231199	33.463828338161	1.002
17	231394	33.483828338161	1.002
17	231559	33.503828338161	1.002
17	231569	33.523828338161	1.002
17	231579	33.543828338161	1.002
17	232090	33.563828338161	1.002
17	232285	33.583828338161	1.002
17	232450	33.603828338161	1.002
17	232460	33.623828338161	1.002
17	232470	33.643828338161	1.002
17	232997	33.663828338161	1.002
17	233192	33.683828338161	1.002
17	233357	33.703828338161	1.002
17	233367	33.723828338161	1.002
17	233377	33.743828338161	1.002
17	233894	33.763828338161	1.002
17	234089	33.783828338161	1.002
17	234254	33.803828338161	1.002
17	234264	33.823828338161	1.002
17	234274	33.843828338161	1.002
17	234807	33.863828338161	1.002
17	235002	33.883828338161	1.002
17	235167	33.903828338161	1.002
17	235177	33.923828338161	1.002
17	235187	33.943828338161	1.002
17	235704	33.963828338161	1.002
17	235899	33.983828338161	1.002
17	236064	34.003828338161	1.002
17	236074	34.023828338161	1.002
17	236084	34.043828338161	1.002
17	236617	34.063828338161	1.002
17	236812	34.083828338161	1.002
17	236977	34.103828338161	1.002
17	236987	34.123828338161	1.002
17	236997	34.143828338161	1.002
17	237514	34.163828338161	1.002
17	237709	34.183828338161	1.002
17	237874	34.203828338161	1.002
17	237884	34.223828338161	1.002
17	237894	34.243828338161	1.002
17	238400	34.263828338161	1.002
17	238595	34.283828338161	1.002
17	238760	34.303828338161	1.002
17	238770	34.323828338161	1.002
17	238780	34.343828338161	1.002
17	239297	34.363828338161	1.002
17	239492	34.383828338161	1.002
17	239657	34.403828338161	1.002
17	239667	34.423828338161	1.002
17	239677	34.443828338161	1.002
17	240204	34.463828338161	1.002
17	240399	34.483828338161	1.002
17	240564	34.503828338161	1.002
17	240574	34.523828338161	1.002
17	240584	34.543828338161	1.002
17	241090	34.563828338161	1.002
17	241285	34.583828338161	1.002
17	241450	34.603828338161	1.002
17	241460	34.623828338161	1.002
17	241470	34.643828338161	1.002
17	241987	34.663828338161	1.002
17	242182	34.683828338161	1.002
17	242347	34.703828338161	1.002
17	242357	34.723828338161	1.002
17	242367	34.743828338161	1.002
17	242883	34.763828338161	1.002
17	243078	34.783828338161	1.002
17	243243	34.803828338161	1.002
17	243253	34.823828338161	1.002
17	243263	34.843828338161	1.002
17	243780	34.863828338161	1.002
17	243975	34.883828338161	1.002
17	244140	34.903828338161	1.002
17	244150	34.923828338161	1.002
17	244160	34.943828338161	1.002
17	244714	34.963828338161	1.002
17	244909	34.983828338161	1.002
17	245074	35.003828338161	1.002
17	245084	35.023828338161	1.002
17	245094	35.043828338161	1.002
17	245606	35.063828338161	1.002
17	245801	35.083828338161	1.002
17	245966	35.103828338161	1.002
17	245976	35.123828338161	1.002
17	245986	35.143828338161	1.002
17	246497	35.163828338161	1.002
17	246692	35.183828338161	1.002
17	246857	35.203828338161	1.002
17	246867	35.223828338161	1.002
17	246877	35.243828338161	1.002
17	247383	35.263828338161	1.002
17	247578	35.283828338161	1.002
17	247743	35.303828338161	1.002
17	247753	35.323828338161	1.002
17	247763	35.343828338161	1.002
17	248275	35.363828338161	1.002
17	248470	35.383828338161	1.002
17	248635	35.403828338161	1.002
17	248645	35.423828338161	1.002
17	248655	35.443828338161	1.002
17	249177	35.463828338161	1.002
17	249372	35.483828338161	1.002
17	249537	35.503828338161	1.002
17	249547	35.523828338161	1.002
17	249557	35.543828338161	1.002
17	250079	35.563828338161	1.002
17	250274	35.583828338161	1.002
17	250439	35.603828338161	1.002
17	250449	35.623828338161	1.002
17	250459	35.643828338161	1.002
17	250970	35.663828338161	1.002
17	251165	35.683828338161	1.002
17	251330	35.703828338161	1.002
17	251340	35.723828338161	1.002
17	251350	35.743828338161	1.002
17	251883	35.763828338161	1.002
17	252078	35.783828338161	1.002
17	252243	35.803828338161	1.002
17	252253	35.823828338161	1.002
17	252263	35.843828338161	1.002
17	252769	35.863828338161	1.002
17	252964	35.883828338161	1.002
17	253129	35.903828338161	1.002
17	253139	35.923828338161	1.002
17	253149	35.943828338161	1.002
17	253676	35.963828338161	1.002
17	253871	35.983828338161	1.002
17	254036	36.003828338161	1.002
17	254046	36.023828338161	1.002
17	254056	36.043828338161	1.002
17	254573	36.063828338161	1.002
17	254768	36.083828338161	1.002
17	254933	36.103828338161	1.002
17	254943	36.123828338161	1.002
17	254953	36.143828338161	1.002
17	255470	36.163828338161	1.002
17	255665	36.183828338161	1.002
17	255830	36.203828338161	1.002
17	255840	36.223828338161	1.002
17	255850	36.243828338161	1.002
17	256372	36.263828338161	1.002
17	256567	36.283828338161	1.002
17	256732	36.303828338161	1.002
17	256742	36.323828338161	1.002
17	256752	36.343828338161	1.002
17	257258	36.363828338161	1.002
17	257453	36.383828338161	1.002
17	257618	36.403828338161	1.002
17	257628	36.423828338161	1.002
17	257638	36.443828338161	1.002
17	258160	36.463828338161	1.002
17	258355	36.483828338161	1.002
17	258520	36.503828338161	1.002
17	258530	36.523828338161	1.002
17	258540	36.543828338161	1.002
17	259062	36.563828338161	1.002
17	259257	36.583828338161	1.002
17	259422	36.603828338161	1.002
17	259432	36.623828338161	1.002
17	259442	36.643828338161	1.002
17	259959	36.663828338161	1.002
17	260154	36.683828338161	1.002
17	260319	36.703828338161	1.002
17	260329	36.723828338161	1.002
17	260339	36.743828338161	1.002
17	260872	36.763828338161	1.002
17	261067	36.783828338161	1.002
17	261232	36.803828338161	1.002
17	261242	36.823828338161	1.002
17	261252	36.843828338161	1.002
17	261806	36.863828338161	1.002
17	262001	36.883828338161	1.002
17	262166	36.903828338161	1.002
17	262176	36.923828338161	1.002
17	262186	36.943828338161	1.002
17	262703	36.963828338161	1.002
17	262898	36.983828338161	1.002
17	263063	37.003828338161	1.002
17	263073	37.023828338161	1.002
17	263083	37.043828338161	1.002
17	263600	37.063828338161	1.002
17	263795	37.083828338161	1.002
17	263960	37.103828338161	1.002
17	263970	37.123828338161	1.002
17	263980	37.143828338161	1.002
17	264545	37.163828338161	1.002
17	264740	37.183828338161	1.002
17	264905	37.203828338161	1.002
17	264915	37.223828338161	1.002
17	264925	37.243828338161	1.002
17	265452	37.263828338161	1.002
17	265647	37.283828338161	1.002
17	265812	37.303828338161	1.002
17	265822	37.323828338161	1.002
17	265832	37.343828338161	1.002
17	266370	37.363828338161	1.002
17	266565	37.383828338161	1.002
17	266730	37.403828338161	1.002
17	266740	37.423828338161	1.002
17	266750	37.443828338161	1.002
17	267272	37.463828338161	1.002
17	267467	37.483828338161	1.002
17	267632	37.503828338161	1.002
17	267642	37.523828338161	1.002
17	267652	37.543828338161	1.002
17	268169	37.563828338161	1.002
17	268364	37.583828338161	1.002
17	268529	37.603828338161	1.002
17	268539	37.623828338161	1.002
17	268549	37.643828338161	1.002
17	269055	37.663828338161	1.002
17	269250	37.683828338161	1.002
17	269415	37.703828338161	1.002
17	269425	37.723828338161	1.002
17	269435	37.743828338161	1.002
17	269957	37.763828338161	1.002
17	270152	37.783828338161	1.002
17	270317	37.803828338161	1.002
17	270327	37.823828338161	1.002
17	270337	37.843828338161	1.002
17	270848	37.863828338161	1.002
17	271043	37.883828338161	1.002
17	271208	37.903828338161	1.002
17	271218	37.923828338161	1.002
17	271228	37.943828338161	1.002
17	271750	37.963828338161	1.002
17	271945	37.983828338161	1.002
17	272110	38.003828338161	1.002
17	272120	38.023828338161	1.002
17	272130	38.043828338161	1.002
17	272663	38.063828338161	1.002
17	272858	38.083828338161	1.002
17	273023	38.103828338161	1.002
17	273033	38.123828338161	1.002
17	273043	38.143828338161	1.002
17	273555	38.163828338161	1.002
17	273750	38.183828338161	1.002
17	273915	38.203828338161	1.002
17	273925	38.223828338161	1.002
17	273935	38.243828338161	1.002
17	274484	38.263828338161	1.002
17	274679	38.283828338161	1.002
17	274844	38.303828338161	1.002
17	274854	38.323828338161	1.002
17	274864	38.343828338161	1.002
17	275386	38.363828338161	1.002
17	275581	38.383828338161	1.002
17	275746	38.403828338161	1.002
17	275756	38.423828338161	1.002
17	275766	38.443828338161	1.002
17	276277	38.463828338161	1.002
17	276472	38.483828338161	1.002
17	276637	38.503828338161	1.002
17	276647	38.523828338161	1.002
17	276657	38.543828338161	1.002
17	277179	38.563828338161	1.002
17	277374	38.583828338161	1.002
17	277539	38.603828338161	1.002
17	277549	38.623828338161	1.002
17	277559	38.643828338161	1.002
17	278075	38.663828338161	1.002
17	278270	38.683828338161	1.002
17	278435	38.703828338161	1.002
17	278445	38.723828338161	1.002
17	278455	38.743828338161	1.002
17	278993	38.763828338161	1.002
17	279188	38.783828338161	1.002
17	279353	38.803828338161	1.002
17	279363	38.823828338161	1.002
17	279373	38.843828338161	1.002
17	279906	38.863828338161	1.002
17	280101	38.883828338161	1.002
17	280266	38.903828338161	1.002
17	280276	38.923828338161	1.002
17	280286	38.943828338161	1.002
17	280814	38.963828338161	1.002
17	281009	38.983828338161	1.002
17	281174	39.003828338161	1.002
17	281184	39.023828338161	1.002
17	281194	39.043828338161	1.002
17	281700	39.063828338161	1.002
17	281895	39.083828338161	1.002
17	282060	39.103828338161	1.002
17	282070	39.123828338161	1.002
17	282080	39.143828338161	1.002
17	282624	39.163828338161	1.002
17	282819	39.183828338161	1.002
17	282984	39.203828338161	1.002
17	282994	39.223828338161	1.002
17	283004	39.243828338161	1.002
17	283510	39.263828338161	1.002
17	283705	39.283828338161	1.002
17	283870	39.303828338161	1.002
17	283880	39.323828338161	1.002
17	283890	39.343828338161	1.002
17	284401	39.363828338161	1.002
17	284596	39.383828338161	1.002
17	284761	39.403828338161	1.002
17	284771	39.423828338161	1.002
17	284781	39.443828338161	1.002
17	285303	39.463828338161	1.002
17	285498	39.483828338161	1.002
17	285663	39.503828338161	1.002
17	285673	39.523828338161	1.002
17	285683	39.543828338161	1.002
17	286216	39.563828338161	1.002
17	286411	39.583828338161	1.002
17	286576	39.603828338161	1.002
17	286586	39.623828338161	1.002
17	286596	39.643828338161	1.002
17	287129	39.663828338161	1.002
17	287324	39.683828338161	1.002
17	287489	39.703828338161	1.002
17	287499	39.723828338161	1.002
17	287509	39.743828338161	1.002
17	288025	39.763828338161	1.002
17	288220	39.783828338161	1.002
17	288385	39.803828338161	1.002
17	288395	39.823828338161	1.002
17	288405	39.843828338161	1.002
17	288911	39.863828338161	1.002
17	289106	39.883828338161	1.002
17	289271	39.903828338161	1.002
17	289281	39.923828338161	1.002
17	289291	39.943828338161	1.002
17	289803	39.963828338161	1.002
17	289998	39.983828338161	1.002
17	290163	40.003828338161	1.002
17	290173	40.023828338161	1.002
17	290183	40.043828338161	1.002
17	290716	40.063828338161	1.002
17	290911	40.083828338161	1.002
17	291076	40.103828338161	1.002
17	291086	40.123828338161	1.002
17	291096	40.143828338161	1.002
17	291624	40.163828338161	1.002
17	291819	40.183828338161	1.002
17	291984	40.203828338161	1.002
17	291994	40.223828338161	1.002
17	292004	40.243828338161	1.002
17	292553	40.263828338161	1.002
17	292748	40.283828338161	1.002
17	292913	40.303828338161	1.002
17	292923	40.323828338161	1.002
17	292933	40.343828338161	1.002
17	293439	40.363828338161	1.002
17	293634	40.383828338161	1.002
17	293799	40.403828338161	1.002
17	293809	40.423828338161	1.002
17	293819	40.443828338161	1.002
17	294346	40.463828338161	1.002
17	294541	40.483828338161	1.002
17	294706	40.503828338161	1.002
17	294716	40.523828338161	1.002
17	294726	40.543828338161	1.002
17	295254	40.563828338161	1.002
17	295449	40.583828338161	1.002
17	295614	40.603828338161	1.002
17	295624	40.623828338161	1.002
17	295634	40.643828338161	1.002
17	296162	40.663828338161	1.002
17	296357	40.683828338161	1.002
17	296522	40.703828338161	1.002
17	296532	40.723828338161	1.002
17	296542	40.743828338161	1.002
17	297064	40.763828338161	1.002
17	297259	40.783828338161	1.002
17	297424	40.803828338161	1.002
17	297434	40.823828338161	1.002
17	297444	40.843828338161	1.002
17	297988	40.863828338161	1.002
17	298183	40.883828338161	1.002
17	298348	40.903828338161	1.002
17	298358	40.923828338161	1.002
17	298368	40.943828338161	1.002
17	298911	40.963828338161	1.002
17	299106	40.983828338161	1.002
17	299271	41.003828338161	1.002
17	299281	41.023828338161	1.002
17	299291	41.043828338161	1.002
17	299808	41.063828338161	1.002
17	300003	41.083828338161	1.002
17	300168	41.103828338161	1.002
17	300178	41.123828338161	1.002
17	300188	41.143828338161	1.002
17	300716	41.163828338161	1.002
17	300911	41.183828338161	1.002
17	301076	41.203828338161	1.002
17	301086	41.223828338161	1.002
17	301096	41.243828338161	1.002
17	301645	41.263828338161	1.002
17	301840	41.283828338161	1.002
17	302005	41.303828338161	1.002
17	302015	41.323828338161	1.002
17	302025	41.343828338161	1.002
17	302553	41.363828338161	1.002
17	302748	41.383828338161	1.002
17	302913	41.403828338161	1.002
17	302923	41.423828338161	1.002
17	302933	41.443828338161	1.002
17	303482	41.463828338161	1.002
17	303677	41.483828338161	1.002
17	303842	41.503828338161	1.002
17	303852	41.523828338161	1.002
17	303862	41.543828338161	1.002
17	304373	41.563828338161	1.002
17	304568	41.583828338161	1.002
17	304733	41.603828338161	1.002
17	304743	41.623828338161	1.002
17	304753	41.643828338161	1.002
17	305286	41.663828338161	1.002
17	305481	41.683828338161	1.002
17	305646	41.703828338161	1.002
17	305656	41.723828338161	1.002
17	305666	41.743828338161	1.002
17	306193	41.763828338161	1.002
17	306388	41.783828338161	1.002
17	306553	41.803828338161	1.002
17	306563	41.823828338161	1.002
17	306573	41.843828338161	1.002
17	307101	41.863828338161	1.002
17	307296	41.883828338161	1.002
17	307461	41.903828338161	1.002
17	307471	41.923828338161	1.002
17	307481	41.943828338161	1.002
17	308019	41.963828338161	1.002
17	308214	41.983828338161	1.002
17	308379	42.003828338161	1.002
17	308389	42.023828338161	1.002
17	308399	42.043828338161	1.002
17	308921	42.063828338161	1.002
17	309116	42.083828338161	1.002
17	309281	42.103828338161	1.002
17	309291	42.123828338161	1.002
17	309301	42.143828338161	1.002
17	309850	42.163828338161	1.002
17	310045	42.183828338161	1.002
17	310210	42.203828338161	1.002
17	310220	42.223828338161	1.002
17	310230	42.243828338161	1.002
17	310736	42.263828338161	1.002
17	310931	42.283828338161	1.002
17	311096	42.303828338161	1.002
17	311106	42.323828338161	1.002
17	311116	42.343828338161	1.002
17	311643	42.363828338161	1.002
17	311838	42.383828338161	1.002
17	312003	42.403828338161	1.002
17	312013	42.423828338161	1.002
17	312023	42.443828338161	1.002
17	312540	42.463828338161	1.002
17	312735	42.483828338161	1.002
17	312900	42.503828338161	1.002
17	312910	42.523828338161	1.002
17	312920	42.543828338161	1.002
17	313426	42.563828338161	1.002
17	313621	42.583828338161	1.002
17	313786	42.603828338161	1.002
17	313796	42.623828338161	1.002
17	313806	42.643828338161	1.002
17	314317	42.663828338161	1.002
17	314512	42.683828338161	1.002
17	314677	42.703828338161	1.002
17	314687	42.723828338161	1.002
17	314697	42.743828338161	1.002
17	315219	42.763828338161	1.002
17	315414	42.783828338161	1.002
17	315579	42.803828338161	1.002
17	315589	42.823828338161	1.002
17	315599	42.843828338161	1.002
17	316148	42.863828338161	1.002
17	316343	42.883828338161	1.002
17	316508	42.903828338161	1.002
17	316518	42.923828338161	1.002
17	316528	42.943828338161	1.002
17	317088	42.963828338161	1.002
17	317283	42.983828338161	1.002
17	317448	43.003828338161	1.002
17	317458	43.023828338161	1.002
17	317468	43.043828338161	1.002
17	318001	43.063828338161	1.002
17	318196	43.083828338161	1.002
17	318361	43.103828338161	1.002
17	318371	43.123828338161	1.002
17	318381	43.143828338161	1.002
17	318898	43.163828338161	1.002
17	319093	43.183828338161	1.002
17	319258	43.203828338161	1.002
17	319268	43.223828338161	1.002
17	319278	43.243828338161	1.002
17	319811	43.263828338161	1.002
17	320006	43.283828338161	1.002
17	320171	43.303828338161	1.002
17	320181	43.323828338161	1.002
17	320191	43.343828338161	1.002
17	320724	43.363828338161	1.002
17	320919	43.383828338161	1.002
17	321084	43.403828338161	1.002
17	321094	43.423828338161	1.002
17	321104	43.443828338161	1.002
17	321632	43.463828338161	1.002
17	321827	43.483828338161	1.002
17	321992	43.503828338161	1.002
17	322002	43.523828338161	1.002
17	322012	43.543828338161	1.002
17	322561	43.563828338161	1.002
17	322756	43.583828338161	1.002
17	322921	43.603828338161	1.002
17	322931	43.623828338161	1.002
17	322941	43.643828338161	1.002
17	323452	43.663828338161	1.002
17	323647	43.683828338161	1.002
17	323812	43.703828338161	1.002
17	323822	43.723828338161	1.002
17	323832	43.743828338161	1.002
17	324359	43.763828338161	1.002
17	324554	43.783828338161	1.002
17	324719	43.803828338161	1.002
17	324729	43.823828338161	1.002
17	324739	43.843828338161	1.002
17	325266	43.863828338161	1.002
17	325461	43.883828338161	1.002
17	325626	43.903828338161	1.002
17	325636	43.923828338161	1.002
17	325646	43.943828338161	1.002
17	326179	43.963828338161	1.002
17	326374	43.983828338161	1.002
17	326539	44.003828338161	1.002
17	326549	44.023828338161	1.002
17	326559	44.043828338161	1.002
17	327081	44.063828338161	1.002
17	327276	44.083828338161	1.002
17	327441	44.103828338161	1.002
17	327451	44.123828338161	1.002
17	327461	44.143828338161	1.002
17	327972	44.163828338161	1.002
17	328167	44.183828338161	1.002
17	328332	44.203828338161	1.002
17	328342	44.223828338161	1.002
17	328352	44.243828338161	1.002
17	328874	44.263828338161	1.002
17	329069	44.283828338161	1.002
17	329234	44.303828338161	1.002
17	329244	44.323828338161	1.002
17	329254	44.343828338161	1.002
17	329803	44.363828338161	1.002
17	329998	44.383828338161	1.002
17	330163	44.403828338161	1.002
17	330173	44.423828338161	1.002
17	330183	44.443828338161	1.002
17	330716	44.463828338161	1.002
17	330911	44.483828338161	1.002
17	331076	44.503828338161	1.002
17	331086	44.523828338161	1.002
17	331096	44.543828338161	1.002
17	331640	44.563828338161	1.002
17	331835	44.583828338161	1.002
17	332000	44.603828338161	1.002
17	332010	44.623828338161	1.002
17	332020	44.643828338161	1.002
17	332537	44.663828338161	1.002
17	332732	44.683828338161	1.002
17	332897	44.703828338161	1.002
17	332907	44.723828338161	1.002
17	332917	44.743828338161	1.002
17	333450	44.763828338161	1.002
17	333645	44.783828338161	1.002
17	333810	44.803828338161	1.002
17	333820	44.823828338161	1.002
17	333830	44.843828338161	1.002
17	334357	44.863828338161	1.002
17	334552	44.883828338161	1.002
17	334717	44.903828338161	1.002
17	334727	44.923828338161	1.002
17	334737	44.943828338161	1.002
17	335259	44.963828338161	1.002
17	335454	44.983828338161	1.002
17	335619	45.003828338161	1.002
17	335629	45.023828338161	1.002
17	335639	45.043828338161	1.002
17	336145	45.063828338161	1.002
17	336340	45.083828338161	1.002
17	336505	45.103828338161	1.002
17	336515	45.123828338161	1.002
17	336525	45.143828338161	1.002
17	337047	45.163828338161	1.002
17	337242	45.183828338161	1.002
17	337407	45.203828338161	1.002
17	337417	45.223828338161	1.002
17	337427	45.243828338161	1.002
17	337949	45.263828338161	1.002
17	338144	45.283828338161	1.002
17	338309	45.303828338161	1.002
17	338319	45.323828338161	1.002
17	338329	45.343828338161	1.002
17	338851	45.363828338161	1.002
17	339046	45.383828338161	1.002
17	339211	45.403828338161	1.002
17	339221	45.423828338161	1.002
17	339231	45.443828338161	1.002
17	339742	45.463828338161	1.002
17	339937	45.483828338161	1.002
17	340102	45.503828338161	1.002
17	340112	45.523828338161	1.002
17	340122	45.543828338161	1.002
17	340655	45.563828338161	1.002
17	340850	45.583828338161	1.002
17	341015	45.603828338161	1.002
17	341025	45.623828338161	1.002
17	341035	45.643828338161	1.002
17	341541	45.663828338161	1.002
17	341736	45.683828338161	1.002
17	341901	45.703828338161	1.002
17	341911	45.723828338161	1.002
17	341921	45.743828338161	1.002
17	342465	45.763828338161	1.002
17	342660	45.783828338161	1.002
17	342825	45.803828338161	1.002
17	342835	45.823828338161	1.002
17	342845	45.843828338161	1.002
17	343351	45.863828338161	1.002
17	343546	45.883828338161	1.002
17	343711	45.903828338161	1.002
17	343721	45.923828338161	1.002
17	343731	45.943828338161	1.002
17	344253	45.963828338161	1.002
17	344448	45.983828338161	1.002
17	344613	46.003828338161	1.002
17	344623	46.023828338161	1.002
17	344633	46.043828338161	1.002
17	345139	46.063828338161	1.002
17	345334	46.083828338161	1.002
17	345499	46.103828338161	1.002
17	345509	46.123828338161	1.002
17	345519	46.143828338161	1.002
17	346036	46.163828338161	1.002
17	346231	46.183828338161	1.002
17	346396	46.203828338161	1.002
17	346406	46.223828338161	1.002
17	346416	46.243828338161	1.002
17	346954	46.263828338161	1.002
17	347149	46.283828338161	1.002
17	347314	46.303828338161	1.002
17	347324	46.323828338161	1.002
17	347334	46.343828338161	1.002
17	347861	46.363828338161	1.002
17	348056	46.383828338161	1.002
17	348221	46.403828338161	1.002
17	348231	46.423828338161	1.002
17	348241	46.443828338161	1.002
17	348795	46.463828338161	1.002
17	348990	46.483828338161	1.002
17	349155	46.503828338161	1.002
17	349165	46.523828338161	1.002
17	349175	46.543828338161	1.002
17	349697	46.563828338161	1.002
17	349892	46.583828338161	1.002
17	350057	46.603828338161	1.002
17	350067	46.623828338161	1.002
17	350077	46.643828338161	1.002
17	350605	46.663828338161	1.002
17	350800	46.683828338161	1.002
17	350965	46.703828338161	1.002
17	350975	46.723828338161	1.002
17	350985	46.743828338161	1.002
17	351507	46.763828338161	1.002
17	351702	46.783828338161	1.002
17	351867	46.803828338161	1.002
17	351877	46.823828338161	1.002
17	351887	46.843828338161	1.002
17	352414	46.863828338161	1.002
17	352609	46.883828338161	1.002
17	352774	46.903828338161	1.002
17	352784	46.923828338161	1.002
17	352794	46.943828338161	1.002
17	353338	46.963828338161	1.002
17	353533	46.983828338161	1.002
17	353698	47.003828338161	1.002
17	353708	47.023828338161	1.002
17	353718	47.043828338161	1.002
17	354246	47.063828338161	1.002
17	354441	47.083828338161	1.002
17	354606	47.103828338161	1.002
17	354616	47.123828338161	1.002
17	354626	47.143828338161	1.002
17	355159	47.163828338161	1.002
17	355354	47.183828338161	1.002
17	355519	47.203828338161	1.002
17	355529	47.223828338161	1.002
17	355539	47.243828338161	1.002
17	356066	47.263828338161	1.002
17	356261	47.283828338161	1.002
17	356426	47.303828338161	1.002
17	356436	47.323828338161	1.002
17	356446	47.343828338161	1.002
17	356979	47.363828338161	1.002
17	357174	47.383828338161	1.002
17	357339	47.403828338161	1.002
[...]
14	323838	43.75006282191	0.001
14	324713	43.80006282191	0.002
14	324745	43.85006282191	0.001
14	325620	43.90006282191	0.002
14	325652	43.95006282191	0.001
14	326533	44.00006282191	0.002
14	326565	44.05006282191	0.001
14	327435	44.10006282191	0.002
14	327467	44.15006282191	0.001
14	328326	44.20006282191	0.002
14	328358	44.25006282191	0.001
14	329228	44.30006282191	0.002
14	329260	44.35006282191	0.001
14	330157	44.40006282191	0.002
14	330189	44.45006282191	0.001
14	331070	44.50006282191	0.002
14	331102	44.55006282191	0.001
14	331994	44.60006282191	0.002
14	332026	44.65006282191	0.001
14	332891	44.70006282191	0.002
14	332923	44.75006282191	0.001
14	333804	44.80006282191	0.002
14	333836	44.85006282191	0.001
14	334711	44.90006282191	0.002
14	334743	44.95006282191	0.001
14	335613	45.00006282191	0.002
14	335645	45.05006282191	0.001
14	336499	45.10006282191	0.002
14	336531	45.15006282191	0.001
14	337401	45.20006282191	0.002
14	337433	45.25006282191	0.001
14	338303	45.30006282191	0.002
14	338335	45.35006282191	0.001
14	339205	45.40006282191	0.002
14	339237	45.45006282191	0.001
14	340096	45.50006282191	0.002
14	340128	45.55006282191	0.001
14	341009	45.60006282191	0.002
14	341041	45.65006282191	0.001
14	341895	45.70006282191	0.002
14	341927	45.75006282191	0.001
14	342819	45.80006282191	0.002
14	342851	45.85006282191	0.001
14	343705	45.90006282191	0.002
14	343737	45.95006282191	0.001
14	344607	46.00006282191	0.002
14	344639	46.05006282191	0.001
14	345493	46.10006282191	0.002
14	345525	46.15006282191	0.001
14	346390	46.20006282191	0.002
14	346422	46.25006282191	0.001
14	347308	46.30006282191	0.002
14	347340	46.35006282191	0.001
14	348215	46.40006282191	0.002
14	348247	46.45006282191	0.001
14	349149	46.50006282191	0.002
14	349181	46.55006282191	0.001
14	350051	46.60006282191	0.002
14	350083	46.65006282191	0.001
14	350959	46.70006282191	0.002
14	350991	46.75006282191	0.001
14	351861	46.80006282191	0.002
14	351893	46.85006282191	0.001
14	352768	46.90006282191	0.002
14	352800	46.95006282191	0.001
14	353692	47.00006282191	0.002
14	353724	47.05006282191	0.001
14	354600	47.10006282191	0.002
14	354632	47.15006282191	0.001
14	355513	47.20006282191	0.002
14	355545	47.25006282191	0.001
14	356420	47.30006282191	0.002
14	356452	47.35006282191	0.001
14	357333	47.40006282191	0.002
14	357365	47.45006282191	0.001
14	358246	47.50006282191	0.002
14	358278	47.55006282191	0.001
14	359132	47.60006282191	0.002
14	359164	47.65006282191	0.001
14	360029	47.70006282191	0.002
14	360061	47.75006282191	0.001
14	360958	47.80006282191	0.002
14	360990	47.85006282191	0.001
14	361887	47.90006282191	0.002
14	361919	47.95006282191	0.001
14	362816	48.00006282191	0.002
14	362848	48.05006282191	0.001
14	363745	48.10006282191	0.002
14	363777	48.15006282191	0.001
14	364647	48.20006282191	0.002
14	364679	48.25006282191	0.001
14	365549	48.30006282191	0.002
14	365581	48.35006282191	0.001
14	366478	48.40006282191	0.002
14	366510	48.45006282191	0.001
14	367375	48.50006282191	0.002
14	367407	48.55006282191	0.001
14	368272	48.60006282191	0.002
14	368304	48.65006282191	0.001
14	369190	48.70006282191	0.002
14	369222	48.75006282191	0.001
14	370119	48.80006282191	0.002
14	370151	48.85006282191	0.001
14	371032	48.90006282191	0.002
14	371064	48.95006282191	0.001
14	371950	49.00006282191	0.002
14	371982	49.05006282191	0.001
14	372852	49.10006282191	0.002
14	372884	49.15006282191	0.001
14	373770	49.20006282191	0.002
14	373802	49.25006282191	0.001
14	374672	49.30006282191	0.002
14	374704	49.35006282191	0.001
14	375558	49.40006282191	0.002
14	375590	49.45006282191	0.001
14	376471	49.50006282191	0.002
14	376503	49.55006282191	0.001
14	377378	49.60006282191	0.002
14	377410	49.65006282191	0.001
14	378258	49.70006282191	0.002
14	378290	49.75006282191	0.001
14	379149	49.80006282191	0.002
14	379181	49.85006282191	0.001
14	380040	49.90006282191	0.002
14	380072	49.95006282191	0.001
14	380947	50.00006282191	0.002
14	380979	50.05006282191	0.001
14	381854	50.10006282191	0.002
14	381886	50.15006282191	0.001
14	382767	50.20006282191	0.002
14	382799	50.25006282191	0.001
14	383680	50.30006282191	0.002
14	383712	50.35006282191	0.001
14	384587	50.40006282191	0.002
14	384619	50.45006282191	0.001
14	385484	50.50006282191	0.002
14	385516	50.55006282191	0.001
14	386391	50.60006282191	0.002
14	386423	50.65006282191	0.001
14	387309	50.70006282191	0.002
14	387341	50.75006282191	0.001
14	388201	50.80006282191	0.002
14	388233	50.85006282191	0.001
14	389130	50.90006282191	0.002
14	389162	50.95006282191	0.001
14	390043	51.00006282191	0.002
14	390075	51.05006282191	0.001
14	390923	51.10006282191	0.002
14	390955	51.15006282191	0.001
14	391836	51.20006282191	0.002
14	391868	51.25006282191	0.001
14	392749	51.30006282191	0.002
14	392781	51.35006282191	0.001
14	393635	51.40006282191	0.002
14	393667	51.45006282191	0.001
14	394548	51.50006282191	0.002
14	394580	51.55006282191	0.001
14	395450	51.60006282191	0.002
14	395482	51.65006282191	0.001
14	396341	51.70006282191	0.002
14	396373	51.75006282191	0.001
14	397254	51.80006282191	0.002
14	397286	51.85006282191	0.001
14	398146	51.90006282191	0.002
14	398178	51.95006282191	0.001
14	399048	52.00006282191	0.002
14	399080	52.05006282191	0.001
14	399939	52.10006282191	0.002
14	399971	52.15006282191	0.001
14	400847	52.20006282191	0.002
14	400879	52.25006282191	0.001
14	401728	52.30006282191	0.002
14	401760	52.35006282191	0.001
14	402620	52.40006282191	0.002
14	402652	52.45006282191	0.001
14	403506	52.50006282191	0.002
14	403538	52.55006282191	0.001
14	404424	52.60006282191	0.002
14	404456	52.65006282191	0.001
14	405347	52.70006282191	0.002
14	405379	52.75006282191	0.001
14	406233	52.80006282191	0.002
14	406265	52.85006282191	0.001
14	407125	52.90006282191	0.002
14	407157	52.95006282191	0.001
14	408027	53.00006282191	0.002
14	408059	53.05006282191	0.001
14	408934	53.10006282191	0.002
14	408966	53.15006282191	0.001
14	409825	53.20006282191	0.002
14	409857	53.25006282191	0.001
14	410727	53.30006282191	0.002
14	410759	53.35006282191	0.001
14	411645	53.40006282191	0.002
14	411677	53.45006282191	0.001
14	412558	53.50006282191	0.002
14	412590	53.55006282191	0.001
14	413460	53.60006282191	0.002
14	413492	53.65006282191	0.001
14	414378	53.70006282191	0.002
14	414410	53.75006282191	0.001
14	415264	53.80006282191	0.002
14	415296	53.85006282191	0.001
14	416161	53.90006282191	0.002
14	416193	53.95006282191	0.001
14	417074	54.00006282191	0.002
14	417106	54.05006282191	0.001
14	418003	54.10006282191	0.002
14	418035	54.15006282191	0.001
14	418910	54.20006282191	0.002
14	418942	54.25006282191	0.001
14	419823	54.30006282191	0.002
14	419855	54.35006282191	0.001
14	420736	54.40006282191	0.002
14	420768	54.45006282191	0.001
14	421649	54.50006282191	0.002
14	421681	54.55006282191	0.001
14	422557	54.60006282191	0.002
14	422589	54.65006282191	0.001
14	423486	54.70006282191	0.002
14	423518	54.75006282191	0.001
14	424399	54.80006282191	0.002
14	424431	54.85006282191	0.001
14	425296	54.90006282191	0.002
14	425328	54.95006282191	0.001
14	426198	55.00006282191	0.002
14	426230	55.05006282191	0.001
14	427111	55.10006282191	0.002
14	427143	55.15006282191	0.001
14	428024	55.20006282191	0.002
14	428056	55.25006282191	0.001
14	428926	55.30006282191	0.002
14	428958	55.35006282191	0.001
14	429812	55.40006282191	0.002
14	429844	55.45006282191	0.001
14	430725	55.50006282191	0.002
14	430757	55.55006282191	0.001
14	431638	55.60006282191	0.002
14	431670	55.65006282191	0.001
14	432535	55.70006282191	0.002
14	432567	55.75006282191	0.001
14	433459	55.80006282191	0.002
14	433491	55.85006282191	0.001
14	434355	55.90006282191	0.002
14	434387	55.95006282191	0.001
14	435257	56.00006282191	0.002
14	435289	56.05006282191	0.001
14	436159	56.10006282191	0.002
14	436191	56.15006282191	0.001
14	437045	56.20006282191	0.002
14	437077	56.25006282191	0.001
14	437969	56.30006282191	0.002
14	438001	56.35006282191	0.001
14	438882	56.40006282191	0.002
14	438914	56.45006282191	0.001
14	439768	56.50006282191	0.002
14	439800	56.55006282191	0.001
14	440670	56.60006282191	0.002
14	440702	56.65006282191	0.001
14	441593	56.70006282191	0.002
14	441625	56.75006282191	0.001
14	442490	56.80006282191	0.002
14	442522	56.85006282191	0.001
14	443392	56.90006282191	0.002
14	443424	56.95006282191	0.001
14	444289	57.00006282191	0.002
14	444321	57.05006282191	0.001
14	445186	57.10006282191	0.002
14	445218	57.15006282191	0.001
14	446088	57.20006282191	0.002
14	446120	57.25006282191	0.001
14	447001	57.30006282191	0.002
14	447033	57.35006282191	0.001
14	447892	57.40006282191	0.002
14	447924	57.45006282191	0.001
14	448783	57.50006282191	0.002
14	448815	57.55006282191	0.001
14	449680	57.60006282191	0.002
14	449712	57.65006282191	0.001
14	450582	57.70006282191	0.002
14	450614	57.75006282191	0.001
14	451484	57.80006282191	0.002
14	451516	57.85006282191	0.001
14	452397	57.90006282191	0.002
14	452429	57.95006282191	0.001
14	453294	58.00006282191	0.002
14	453326	58.05006282191	0.001
14	454207	58.10006282191	0.002
14	454239	58.15006282191	0.001
14	455136	58.20006282191	0.002
14	455168	58.25006282191	0.001
14	456060	58.30006282191	0.002
14	456092	58.35006282191	0.001
14	456984	58.40006282191	0.002
14	457016	58.45006282191	0.001
14	457859	58.50006282191	0.002
14	457891	58.55006282191	0.001
14	458788	58.60006282191	0.002
14	458820	58.65006282191	0.001
14	459679	58.70006282191	0.002
14	459711	58.75006282191	0.001
14	460608	58.80006282191	0.002
14	460640	58.85006282191	0.001
14	461521	58.90006282191	0.002
14	461553	58.95006282191	0.001
14	462418	59.00006282191	0.002
14	462450	59.05006282191	0.001
14	463320	59.10006282191	0.002
14	463352	59.15006282191	0.001
14	464227	59.20006282191	0.002
14	464259	59.25006282191	0.001
14	465118	59.30006282191	0.002
14	465150	59.35006282191	0.001
14	466010	59.40006282191	0.002
14	466042	59.45006282191	0.001
14	466918	59.50006282191	0.002
14	466950	59.55006282191	0.001
14	467820	59.60006282191	0.002
14	467852	59.65006282191	0.001
14	468733	59.70006282191	0.002
14	468765	59.75006282191	0.001
14	469624	59.80006282191	0.002
14	469656	59.85006282191	0.001
14	470526	59.90006282191	0.002
14	470558	59.95006282191	0.001
14	471439	60.00006282191	0.002
14	471471	60.05006282191	0.001
14	472331	60.10006282191	0.002
14	472363	60.15006282191	0.001
14	473223	60.20006282191	0.002
14	473255	60.25006282191	0.001
14	474115	60.30006282191	0.002
14	474147	60.35006282191	0.001
14	475049	60.40006282191	0.002
14	475081	60.45006282191	0.001
14	475935	60.50006282191	0.002
14	475967	60.55006282191	0.001
14	476853	60.60006282191	0.002
14	476885	60.65006282191	0.001
14	477771	60.70006282191	0.002
14	477803	60.75006282191	0.001
14	478673	60.80006282191	0.002
14	478705	60.85006282191	0.001
14	479586	60.90006282191	0.002
14	479618	60.95006282191	0.001
14	480488	61.00006282191	0.002
14	480520	61.05006282191	0.001
14	481390	61.10006282191	0.002
14	481422	61.15006282191	0.001
14	482287	61.20006282191	0.002
14	482319	61.25006282191	0.001
14	483200	61.30006282191	0.002
14	483232	61.35006282191	0.001
14	484113	61.40006282191	0.002
14	484145	61.45006282191	0.001
14	485021	61.50006282191	0.002
14	485053	61.55006282191	0.001
14	485912	61.60006282191	0.002
14	485944	61.65006282191	0.001
14	486808	61.70006282191	0.002
14	486833	61.75006282191	0.001
14	487440	61.80006282191	0.002
14	487465	61.85006282191	0.001
14	488063	61.90006282191	0.002
14	488088	61.95006282191	0.001
14	488686	62.00006282191	0.002
14	488711	62.05006282191	0.001
14	489305	62.10006282191	0.002
14	489330	62.15006282191	0.001
14	489937	62.20006282191	0.002
14	489962	62.25006282191	0.001
14	490582	62.30006282191	0.002
14	490607	62.35006282191	0.001
14	491205	62.40006282191	0.002
14	491230	62.45006282191	0.001
14	491828	62.50006282191	0.002
14	491853	62.55006282191	0.001
14	492447	62.60006282191	0.002
14	492472	62.65006282191	0.001
14	493079	62.70006282191	0.002
14	493104	62.75006282191	0.001
14	493698	62.80006282191	0.002
14	493723	62.85006282191	0.001
14	494321	62.90006282191	0.002
14	494346	62.95006282191	0.001
14	494940	63.00006282191	0.002
14	494965	63.05006282191	0.001
14	495585	63.10006282191	0.002
14	495610	63.15006282191	0.001
14	496208	63.20006282191	0.002
14	496233	63.25006282191	0.001
14	496831	63.30006282191	0.002
14	496856	63.35006282191	0.001
14	497463	63.40006282191	0.002
14	497488	63.45006282191	0.001
14	498099	63.50006282191	0.002
14	498124	63.55006282191	0.001
14	498722	63.60006282191	0.002
14	498747	63.65006282191	0.001
14	499358	63.70006282191	0.002
14	499383	63.75006282191	0.001
14	499981	63.80006282191	0.002
14	500006	63.85006282191	0.001
14	500617	63.90006282191	0.002
14	500642	63.95006282191	0.001
14	501240	64.00006282191	0.002
14	501265	64.05006282191	0.001
14	501876	64.10006282191	0.002
14	501901	64.15006282191	0.001
14	502512	64.20006282191	0.002
14	502537	64.25006282191	0.001
14	503135	64.30006282191	0.002
14	503160	64.35006282191	0.001
14	503771	64.40006282191	0.002
14	503796	64.45006282191	0.001
14	504403	64.50006282191	0.002
14	504428	64.55006282191	0.001
14	505039	64.60006282191	0.002
14	505064	64.65006282191	0.001
14	505653	64.70006282191	0.002
14	505671	64.75006282191	0.001
14	506047	64.80006282191	0.002
14	506065	64.85006282191	0.001
14	506441	64.90006282191	0.002
14	506459	64.95006282191	0.001
14	506835	65.00006282191	0.002
14	506853	65.05006282191	0.001
14	507229	65.10006282191	0.002
14	507247	65.15006282191	0.001
14	507633	65.20006282191	0.002
14	507651	65.25006282191	0.001
14	508037	65.30006282191	0.002
14	508055	65.35006282191	0.001
14	508421	65.40006282191	0.002
14	508439	65.45006282191	0.001
14	508835	65.50006282191	0.002
14	508853	65.55006282191	0.001
14	509239	65.60006282191	0.002
14	509257	65.65006282191	0.001
14	509643	65.70006282191	0.002
14	509661	65.75006282191	0.001
14	510047	65.80006282191	0.002
14	510065	65.85006282191	0.001
14	510451	65.90006282191	0.002
14	510469	65.95006282191	0.001
14	510865	66.00006282191	0.002
14	510883	66.05006282191	0.001
14	511269	66.10006282191	0.002
14	511287	66.15006282191	0.001
14	511663	66.20006282191	0.002
14	511681	66.25006282191	0.001
14	512060	66.30006282191	0.002
14	512078	66.35006282191	0.001
14	512464	66.40006282191	0.002
14	512482	66.45006282191	0.001
14	512858	66.50006282191	0.002
14	512876	66.55006282191	0.001
14	513262	66.60006282191	0.002
14	513280	66.65006282191	0.001
14	513666	66.70006282191	0.002
14	513684	66.75006282191	0.001
14	514070	66.80006282191	0.002
14	514088	66.85006282191	0.001
14	514474	66.90006282191	0.002
14	514492	66.95006282191	0.001
14	514878	67.00006282191	0.002
14	514896	67.05006282191	0.001
14	515272	67.10006282191	0.002
14	515290	67.15006282191	0.001
14	515656	67.20006282191	0.002
14	515674	67.25006282191	0.001
14	516050	67.30006282191	0.002
14	516068	67.35006282191	0.001
14	516444	67.40006282191	0.002
14	516462	67.45006282191	0.001
14	516838	67.50006282191	0.002
14	516856	67.55006282191	0.001
14	517242	67.60006282191	0.002
14	517260	67.65006282191	0.001
14	517646	67.70006282191	0.002
14	517659	67.75006282191	0.001
14	517863	67.80006282191	0.002
14	517876	67.85006282191	0.001
14	518080	67.90006282191	0.002
14	518093	67.95006282191	0.001
14	518290	68.00006282191	0.002
14	518303	68.05006282191	0.001
14	518507	68.10006282191	0.002
14	518520	68.15006282191	0.001
14	518724	68.20006282191	0.002
14	518737	68.25006282191	0.001
14	518941	68.30006282191	0.002
14	518954	68.35006282191	0.001
14	519158	68.40006282191	0.002
14	519171	68.45006282191	0.001
14	519375	68.50006282191	0.002
14	519388	68.55006282191	0.001
14	519592	68.60006282191	0.002
14	519605	68.65006282191	0.001
14	519809	68.70006282191	0.002
14	519822	68.75006282191	0.001
14	520019	68.80006282191	0.002
14	520032	68.85006282191	0.001
14	520236	68.90006282191	0.002
14	520249	68.95006282191	0.001
14	520453	69.00006282191	0.002
14	520466	69.05006282191	0.001
14	520670	69.10006282191	0.002
14	520683	69.15006282191	0.001
14	520887	69.20006282191	0.002
14	520900	69.25006282191	0.001
14	521097	69.30006282191	0.002
14	521110	69.35006282191	0.001
14	521314	69.40006282191	0.002
14	521327	69.45006282191	0.001
14	521531	69.50006282191	0.002
14	521544	69.55006282191	0.001
14	521748	69.60006282191	0.002
14	521761	69.65006282191	0.001
14	521965	69.70006282191	0.002
14	521978	69.75006282191	0.001
14	522182	69.80006282191	0.002
14	522195	69.85006282191	0.001
14	522399	69.90006282191	0.002
14	522412	69.95006282191	0.001
14	522616	70.00006282191	0.002
14	522629	70.05006282191	0.001
14	522826	70.10006282191	0.002
14	522839	70.15006282191	0.001
14	523043	70.20006282191	0.002
14	523056	70.25006282191	0.001
14	523260	70.30006282191	0.002
14	523273	70.35006282191	0.001
14	523477	70.40006282191	0.002
14	523490	70.45006282191	0.001
14	523694	70.50006282191	0.002
14	523700	70.55006282191	0.001
14	523774	70.60006282191	0.002
14	523780	70.65006282191	0.001
14	523854	70.70006282191	0.002
14	523860	70.75006282191	0.001
14	523934	70.80006282191	0.002
14	523940	70.85006282191	0.001
14	524014	70.90006282191	0.002
14	524020	70.95006282191	0.001
14	524094	71.00006282191	0.002
14	524100	71.05006282191	0.001
14	524174	71.10006282191	0.002
14	524180	71.15006282191	0.001
14	524254	71.20006282191	0.002
14	524260	71.25006282191	0.001
14	524334	71.30006282191	0.002
14	524340	71.35006282191	0.001
14	524414	71.40006282191	0.002
14	524420	71.45006282191	0.001
14	524494	71.50006282191	0.002
14	524500	71.55006282191	0.001
14	524574	71.60006282191	0.002
14	524580	71.65006282191	0.001
14	524654	71.70006282191	0.002
14	524660	71.75006282191	0.001
14	524734	71.80006282191	0.002
14	524740	71.85006282191	0.001
14	524814	71.90006282191	0.002
14	524820	71.95006282191	0.001
14	524894	72.00006282191	0.002
14	524900	72.05006282191	0.001
14	524974	72.10006282191	0.002
14	524980	72.15006282191	0.001
14	525054	72.20006282191	0.002
14	525060	72.25006282191	0.001
14	525134	72.30006282191	0.002
14	525140	72.35006282191	0.001
14	525214	72.40006282191	0.002
14	525220	72.45006282191	0.001
14	525294	72.50006282191	0.002
14	525300	72.55006282191	0.001
14	525374	72.60006282191	0.002
14	525380	72.65006282191	0.001
14	525454	72.70006282191	0.002
14	525460	72.75006282191	0.001
14	525534	72.80006282191	0.002
14	525540	72.85006282191	0.001
14	525614	72.90006282191	0.002
14	525620	72.95006282191	0.001
14	525694	73.00006282191	0.002
14	525700	73.05006282191	0.001
14	525774	73.10006282191	0.002
14	525780	73.15006282191	0.001
14	525854	73.20006282191	0.002
14	525860	73.25006282191	0.001
14	525934	73.30006282191	0.002
14	525940	73.35006282191	0.001
14	526014	73.40006282191	0.002
14	526020	73.45006282191	0.001
14	526094	73.50006282191	0.002
14	526100	73.55006282191	0.001
14	526173	73.60006282191	0.002
14	526174	73.65006282191	0.001
14	526175	73.70006282191	0.002
14	526176	73.75006282191	0.001
14	526177	73.80006282191	0.002
14	526178	73.85006282191	0.001
14	526179	73.90006282191	0.002
14	526180	73.95006282191	0.001
14	526181	74.00006282191	0.002
14	526182	74.05006282191	0.001
14	526183	74.10006282191	0.002
14	526184	74.15006282191	0.001
14	526185	74.20006282191	0.002
14	526186	74.25006282191	0.001
14	526187	74.30006282191	0.002
14	526188	74.35006282191	0.001
14	526189	74.40006282191	0.002
14	526190	74.45006282191	0.001
14	526191	74.50006282191	0.002
14	526192	74.55006282191	0.001
14	526193	74.60006282191	0.002
14	526194	74.65006282191	0.001
14	526195	74.70006282191	0.002
14	526196	74.75006282191	0.001
14	526197	74.80006282191	0.002
14	526198	74.85006282191	0.001
14	526199	74.90006282191	0.002
14	526200	74.95006282191	0.001
14	526201	75.00006282191	0.002
14	526202	75.05006282191	0.001
14	526203	75.10006282191	0.002
14	526204	75.15006282191	0.001
14	526205	75.20006282191	0.002
14	526206	75.25006282191	0.001
14	526207	75.30006282191	0.002
14	526208	75.35006282191	0.001
14	526209	75.40006282191	0.002
14	526210	75.45006282191	0.001
14	526211	75.50006282191	0.002
14	526212	75.55006282191	0.001
14	526213	75.60006282191	0.002
14	526214	75.65006282191	0.001
14	526215	75.70006282191	0.002
14	526216	75.75006282191	0.001
14	526217	75.80006282191	0.002
14	526218	75.85006282191	0.001
14	526219	75.90006282191	0.002
14	526220	75.95006282191	0.001
