version 2
run VoIP-20ms_200B-8-20160923-14:11:07-14622
attr configname VoIP-20ms_200B
attr datetime 20160923-14:11:07
attr experiment VoIP-20ms_200B
attr inifile omnetpp.ini
attr iterationvars ""
attr iterationvars2 $repetition=8
attr measurement ""
attr network SymScenerio
attr processid 14622
attr repetition 8
attr replication #8
attr resultdir results
attr runnumber 8
attr seedset 8
param **.coreDebug false
param **.debug false
param *.**.nic.mac1609_4.bitrate 18Mbps
param *.**.nic.mac1609_4.txPower 20mW
param *.**.nic.mac1609_4.useServiceChannel true
param *.**.nic.phy80211p.analogueModels "xmldoc(\"config.xml\")"
param *.**.nic.phy80211p.decider "xmldoc(\"config.xml\")"
param *.**.nic.phy80211p.sensitivity -89dBm
param *.**.nic.phy80211p.thermalNoise -110dBm
param *.**.nic.phy80211p.usePropagationDelay true
param *.**.nic.phy80211p.useThermalNoise true
param *.annotations.draw false
param *.connectionManager.alpha 2.0
param *.connectionManager.carrierFrequency "5.890e9 Hz"
param *.connectionManager.pMax 20mW
param *.connectionManager.sat -89dBm
param *.connectionManager.sendDirect true
param *.manager.autoShutdown true
param *.manager.host "\"localhost\""
param *.manager.launchConfig "xmldoc(\"map.launchd.xml\")"
param *.manager.margin 25
param *.manager.moduleDisplayString "\"\""
param *.manager.moduleName "\"node\""
param *.manager.moduleType "\"symulacja.veins.nodes.Car\""
param *.manager.port 9999
param *.manager.updateInterval 0.1s
param *.node[*].appl.beaconInterval 1s
param *.node[*].appl.beaconPriority 3
param *.node[*].appl.dataOnSch false
param *.node[*].appl.dataPriority 2
param *.node[*].appl.debug false
param *.node[*].appl.maxOffset 0.005s
param *.node[*].appl.sendBeacons false
param *.node[*].appl.sendData true
param *.node[*].appl.sendVoIP true
param *.node[*].appl.voipInterval 0.020s
param *.node[*].appl.voipLengthBits 1600bit
param *.node[*].appl.voipOnSch true
param *.node[*].appl.voipPriority 3
param *.node[*].applType "\"Sym11p\""
param *.node[*].veinsmobility.x 0
param *.node[*].veinsmobility.y 0
param *.node[*].veinsmobility.z 1.895
param *.node[*].veinsmobilityType "\"symulacja.veins.modules.mobility.traci.TraCIMobility\""
param *.playgroundSizeX 9000m
param *.playgroundSizeY 9000m
param *.playgroundSizeZ 50m
param *.rsu[*].appl.beaconInterval 1s
param *.rsu[*].appl.beaconPriority 3
param *.rsu[*].appl.dataOnSch false
param *.rsu[*].appl.dataPriority 2
param *.rsu[*].appl.debug false
param *.rsu[*].appl.headerLength "256 bit"
param *.rsu[*].appl.maxOffset 0.005s
param *.rsu[*].appl.sendBeacons false
param *.rsu[*].appl.sendData false
param *.rsu[*].appl.sendVoIP false
param *.rsu[*].applType "\"SymRSU11p\""
param *.rsu[0].mobility.x 2160
param *.rsu[0].mobility.y 3100
param *.rsu[0].mobility.z 3
param *.world.use2D false
param *.world.useTorus false

vector 14  SymScenerio.rsu[0].nic.mac1609_4  "Interwały kanałów"  ETV
vector 23  SymScenerio.node[0].veinsmobility  posx  ETV
vector 24  SymScenerio.node[0].veinsmobility  posy  ETV
vector 22  SymScenerio.node[0].nic.mac1609_4  "Interwały kanałów"  ETV
vector 25  SymScenerio.node[0].veinsmobility  speed  ETV
vector 26  SymScenerio.node[0].veinsmobility  acceleration  ETV
vector 27  SymScenerio.node[0].veinsmobility  co2emission  ETV
vector 15  SymScenerio.node[0].appl  "TX Packets"  ETV
vector 16  SymScenerio.node[0].appl  "TX Total"  ETV
vector 17  SymScenerio.node[0].appl  Pakietyzacja  ETV
vector 5  SymScenerio.rsu[0].appl  nodeALL:vector  ETV
attr source  nodeALL
attr title  "Opoznienia ALL, vector"
vector 9  SymScenerio.rsu[0].appl  "RX Packet"  ETV
vector 0  SymScenerio.rsu[0].appl  node0:vector  ETV
attr source  node0
attr title  "Opoznienia node0, vector"
vector 36  SymScenerio.node[1].veinsmobility  posx  ETV
vector 37  SymScenerio.node[1].veinsmobility  posy  ETV
vector 35  SymScenerio.node[1].nic.mac1609_4  "Interwały kanałów"  ETV
vector 38  SymScenerio.node[1].veinsmobility  speed  ETV
vector 39  SymScenerio.node[1].veinsmobility  acceleration  ETV
vector 40  SymScenerio.node[1].veinsmobility  co2emission  ETV
vector 28  SymScenerio.node[1].appl  "TX Packets"  ETV
vector 29  SymScenerio.node[1].appl  "TX Total"  ETV
vector 30  SymScenerio.node[1].appl  Pakietyzacja  ETV
vector 1  SymScenerio.rsu[0].appl  node1:vector  ETV
attr source  node1
attr title  "Opoznienia node1, vector"
vector 49  SymScenerio.node[2].veinsmobility  posx  ETV
vector 50  SymScenerio.node[2].veinsmobility  posy  ETV
vector 41  SymScenerio.node[2].appl  "TX Packets"  ETV
vector 42  SymScenerio.node[2].appl  "TX Total"  ETV
vector 43  SymScenerio.node[2].appl  Pakietyzacja  ETV
vector 48  SymScenerio.node[2].nic.mac1609_4  "Interwały kanałów"  ETV
vector 2  SymScenerio.rsu[0].appl  node2:vector  ETV
attr source  node2
attr title  "Opoznienia node2, vector"
vector 51  SymScenerio.node[2].veinsmobility  speed  ETV
vector 52  SymScenerio.node[2].veinsmobility  acceleration  ETV
vector 53  SymScenerio.node[2].veinsmobility  co2emission  ETV
vector 62  SymScenerio.node[3].veinsmobility  posx  ETV
vector 63  SymScenerio.node[3].veinsmobility  posy  ETV
vector 61  SymScenerio.node[3].nic.mac1609_4  "Interwały kanałów"  ETV
vector 64  SymScenerio.node[3].veinsmobility  speed  ETV
vector 65  SymScenerio.node[3].veinsmobility  acceleration  ETV
vector 66  SymScenerio.node[3].veinsmobility  co2emission  ETV
vector 54  SymScenerio.node[3].appl  "TX Packets"  ETV
vector 55  SymScenerio.node[3].appl  "TX Total"  ETV
vector 56  SymScenerio.node[3].appl  Pakietyzacja  ETV
vector 3  SymScenerio.rsu[0].appl  node3:vector  ETV
attr source  node3
attr title  "Opoznienia node3, vector"
vector 75  SymScenerio.node[4].veinsmobility  posx  ETV
vector 76  SymScenerio.node[4].veinsmobility  posy  ETV
vector 74  SymScenerio.node[4].nic.mac1609_4  "Interwały kanałów"  ETV
vector 77  SymScenerio.node[4].veinsmobility  speed  ETV
vector 78  SymScenerio.node[4].veinsmobility  acceleration  ETV
vector 79  SymScenerio.node[4].veinsmobility  co2emission  ETV
vector 67  SymScenerio.node[4].appl  "TX Packets"  ETV
vector 68  SymScenerio.node[4].appl  "TX Total"  ETV
vector 69  SymScenerio.node[4].appl  Pakietyzacja  ETV
vector 4  SymScenerio.rsu[0].appl  node4:vector  ETV
attr source  node4
attr title  "Opoznienia node4, vector"
17	15	0.336364163347	1.002
17	32	0.356364163347	1.002
17	47	0.376364163347	1.002
17	62	0.396364163347	1.002
17	80	0.416364163347	1.002
17	82	0.436364163347	1.002
17	112	0.456364163347	1.002
17	127	0.476364163347	1.002
17	142	0.496364163347	1.002
17	160	0.516364163347	1.002
17	162	0.536364163347	1.002
17	192	0.556364163347	1.002
17	207	0.576364163347	1.002
17	222	0.596364163347	1.002
17	240	0.616364163347	1.002
17	242	0.636364163347	1.002
17	272	0.656364163347	1.002
17	287	0.676364163347	1.002
17	302	0.696364163347	1.002
17	320	0.716364163347	1.002
17	322	0.736364163347	1.002
17	352	0.756364163347	1.002
17	367	0.776364163347	1.002
17	382	0.796364163347	1.002
17	400	0.816364163347	1.002
17	402	0.836364163347	1.002
17	432	0.856364163347	1.002
17	447	0.876364163347	1.002
17	462	0.896364163347	1.002
17	480	0.916364163347	1.002
17	482	0.936364163347	1.002
17	512	0.956364163347	1.002
17	527	0.976364163347	1.002
17	542	0.996364163347	1.002
17	560	1.016364163347	1.002
17	562	1.036364163347	1.002
17	592	1.056364163347	1.002
17	607	1.076364163347	1.002
17	622	1.096364163347	1.002
17	640	1.116364163347	1.002
17	642	1.136364163347	1.002
17	672	1.156364163347	1.002
17	687	1.176364163347	1.002
17	702	1.196364163347	1.002
17	720	1.216364163347	1.002
17	722	1.236364163347	1.002
17	752	1.256364163347	1.002
17	767	1.276364163347	1.002
17	782	1.296364163347	1.002
17	800	1.316364163347	1.002
17	802	1.336364163347	1.002
17	832	1.356364163347	1.002
17	847	1.376364163347	1.002
17	862	1.396364163347	1.002
17	880	1.416364163347	1.002
17	882	1.436364163347	1.002
17	912	1.456364163347	1.002
17	927	1.476364163347	1.002
17	942	1.496364163347	1.002
17	960	1.516364163347	1.002
17	962	1.536364163347	1.002
17	992	1.556364163347	1.002
17	1007	1.576364163347	1.002
17	1022	1.596364163347	1.002
17	1040	1.616364163347	1.002
17	1042	1.636364163347	1.002
17	1072	1.656364163347	1.002
17	1087	1.676364163347	1.002
17	1102	1.696364163347	1.002
17	1120	1.716364163347	1.002
17	1122	1.736364163347	1.002
17	1152	1.756364163347	1.002
17	1167	1.776364163347	1.002
17	1182	1.796364163347	1.002
17	1200	1.816364163347	1.002
17	1202	1.836364163347	1.002
17	1232	1.856364163347	1.002
17	1247	1.876364163347	1.002
17	1262	1.896364163347	1.002
17	1280	1.916364163347	1.002
17	1282	1.936364163347	1.002
17	1312	1.956364163347	1.002
17	1327	1.976364163347	1.002
17	1342	1.996364163347	1.002
17	1360	2.016364163347	1.002
17	1362	2.036364163347	1.002
17	1392	2.056364163347	1.002
17	1407	2.076364163347	1.002
17	1422	2.096364163347	1.002
17	1440	2.116364163347	1.002
17	1442	2.136364163347	1.002
17	1472	2.156364163347	1.002
17	1487	2.176364163347	1.002
17	1502	2.196364163347	1.002
17	1520	2.216364163347	1.002
17	1522	2.236364163347	1.002
17	1552	2.256364163347	1.002
17	1567	2.276364163347	1.002
17	1582	2.296364163347	1.002
17	1600	2.316364163347	1.002
17	1602	2.336364163347	1.002
17	1632	2.356364163347	1.002
17	1647	2.376364163347	1.002
17	1662	2.396364163347	1.002
17	1680	2.416364163347	1.002
17	1682	2.436364163347	1.002
17	1712	2.456364163347	1.002
17	1727	2.476364163347	1.002
17	1742	2.496364163347	1.002
17	1760	2.516364163347	1.002
17	1762	2.536364163347	1.002
17	1792	2.556364163347	1.002
17	1807	2.576364163347	1.002
17	1822	2.596364163347	1.002
17	1840	2.616364163347	1.002
17	1842	2.636364163347	1.002
17	1872	2.656364163347	1.002
17	1887	2.676364163347	1.002
17	1902	2.696364163347	1.002
17	1920	2.716364163347	1.002
17	1922	2.736364163347	1.002
17	1952	2.756364163347	1.002
17	1967	2.776364163347	1.002
17	1982	2.796364163347	1.002
17	2000	2.816364163347	1.002
17	2002	2.836364163347	1.002
17	2032	2.856364163347	1.002
17	2047	2.876364163347	1.002
17	2062	2.896364163347	1.002
17	2080	2.916364163347	1.002
17	2082	2.936364163347	1.002
17	2112	2.956364163347	1.002
17	2127	2.976364163347	1.002
17	2142	2.996364163347	1.002
17	2160	3.016364163347	1.002
17	2162	3.036364163347	1.002
17	2192	3.056364163347	1.002
17	2207	3.076364163347	1.002
17	2222	3.096364163347	1.002
17	2240	3.116364163347	1.002
17	2242	3.136364163347	1.002
17	2285	3.156364163347	1.002
17	2306	3.176364163347	1.002
17	2327	3.196364163347	1.002
17	2352	3.216364163347	1.002
17	2354	3.236364163347	1.002
17	2397	3.256364163347	1.002
17	2418	3.276364163347	1.002
17	2439	3.296364163347	1.002
17	2464	3.316364163347	1.002
17	2466	3.336364163347	1.002
17	2509	3.356364163347	1.002
17	2551	3.376364163347	1.002
17	2593	3.396364163347	1.002
17	2639	3.416364163347	1.002
17	2643	3.436364163347	1.002
17	2726	3.456364163347	1.002
17	2768	3.476364163347	1.002
17	2810	3.496364163347	1.002
17	2856	3.516364163347	1.002
17	2860	3.536364163347	1.002
17	2936	3.556364163347	1.002
17	2978	3.576364163347	1.002
17	3020	3.596364163347	1.002
17	3066	3.616364163347	1.002
17	3070	3.636364163347	1.002
17	3146	3.656364163347	1.002
17	3188	3.676364163347	1.002
17	3230	3.696364163347	1.002
17	3276	3.716364163347	1.002
17	3280	3.736364163347	1.002
17	3356	3.756364163347	1.002
17	3398	3.776364163347	1.002
17	3440	3.796364163347	1.002
17	3486	3.816364163347	1.002
17	3490	3.836364163347	1.002
17	3573	3.856364163347	1.002
17	3615	3.876364163347	1.002
17	3657	3.896364163347	1.002
17	3703	3.916364163347	1.002
17	3707	3.936364163347	1.002
17	3790	3.956364163347	1.002
17	3832	3.976364163347	1.002
17	3874	3.996364163347	1.002
17	3920	4.016364163347	1.002
17	3924	4.036364163347	1.002
17	4000	4.056364163347	1.002
17	4042	4.076364163347	1.002
17	4084	4.096364163347	1.002
17	4130	4.116364163347	1.002
17	4134	4.136364163347	1.002
17	4217	4.156364163347	1.002
17	4259	4.176364163347	1.002
17	4301	4.196364163347	1.002
17	4347	4.216364163347	1.002
17	4351	4.236364163347	1.002
17	4434	4.256364163347	1.002
17	4476	4.276364163347	1.002
17	4518	4.296364163347	1.002
17	4564	4.316364163347	1.002
17	4568	4.336364163347	1.002
17	4644	4.356364163347	1.002
17	4686	4.376364163347	1.002
17	4728	4.396364163347	1.002
17	4774	4.416364163347	1.002
17	4778	4.436364163347	1.002
17	4861	4.456364163347	1.002
17	4903	4.476364163347	1.002
17	4945	4.496364163347	1.002
17	4991	4.516364163347	1.002
17	4995	4.536364163347	1.002
17	5078	4.556364163347	1.002
17	5120	4.576364163347	1.002
17	5162	4.596364163347	1.002
17	5208	4.616364163347	1.002
17	5212	4.636364163347	1.002
17	5288	4.656364163347	1.002
17	5330	4.676364163347	1.002
17	5372	4.696364163347	1.002
17	5418	4.716364163347	1.002
17	5422	4.736364163347	1.002
17	5505	4.756364163347	1.002
17	5547	4.776364163347	1.002
17	5589	4.796364163347	1.002
17	5635	4.816364163347	1.002
17	5639	4.836364163347	1.002
17	5715	4.856364163347	1.002
17	5757	4.876364163347	1.002
17	5799	4.896364163347	1.002
17	5845	4.916364163347	1.002
17	5849	4.936364163347	1.002
17	5925	4.956364163347	1.002
17	5967	4.976364163347	1.002
17	6009	4.996364163347	1.002
17	6055	5.016364163347	1.002
17	6059	5.036364163347	1.002
17	6135	5.056364163347	1.002
17	6177	5.076364163347	1.002
17	6219	5.096364163347	1.002
17	6265	5.116364163347	1.002
17	6269	5.136364163347	1.002
17	6352	5.156364163347	1.002
17	6394	5.176364163347	1.002
17	6436	5.196364163347	1.002
17	6482	5.216364163347	1.002
17	6486	5.236364163347	1.002
17	6562	5.256364163347	1.002
17	6604	5.276364163347	1.002
17	6646	5.296364163347	1.002
17	6692	5.316364163347	1.002
17	6696	5.336364163347	1.002
17	6772	5.356364163347	1.002
17	6814	5.376364163347	1.002
17	6856	5.396364163347	1.002
17	6902	5.416364163347	1.002
17	6906	5.436364163347	1.002
17	6989	5.456364163347	1.002
17	7031	5.476364163347	1.002
17	7073	5.496364163347	1.002
17	7119	5.516364163347	1.002
17	7123	5.536364163347	1.002
17	7199	5.556364163347	1.002
17	7241	5.576364163347	1.002
17	7283	5.596364163347	1.002
17	7329	5.616364163347	1.002
17	7333	5.636364163347	1.002
17	7416	5.656364163347	1.002
17	7458	5.676364163347	1.002
17	7500	5.696364163347	1.002
17	7546	5.716364163347	1.002
17	7550	5.736364163347	1.002
17	7626	5.756364163347	1.002
17	7668	5.776364163347	1.002
17	7710	5.796364163347	1.002
17	7756	5.816364163347	1.002
17	7760	5.836364163347	1.002
17	7843	5.856364163347	1.002
17	7885	5.876364163347	1.002
17	7927	5.896364163347	1.002
17	7973	5.916364163347	1.002
17	7977	5.936364163347	1.002
17	8053	5.956364163347	1.002
17	8095	5.976364163347	1.002
17	8137	5.996364163347	1.002
17	8183	6.016364163347	1.002
17	8187	6.036364163347	1.002
17	8263	6.056364163347	1.002
17	8305	6.076364163347	1.002
17	8347	6.096364163347	1.002
17	8393	6.116364163347	1.002
17	8399	6.136364163347	1.002
17	8559	6.156364163347	1.002
17	8640	6.176364163347	1.002
17	8721	6.196364163347	1.002
17	8782	6.216364163347	1.002
17	8788	6.236364163347	1.002
17	8956	6.256364163347	1.002
17	9037	6.276364163347	1.002
17	9118	6.296364163347	1.002
17	9179	6.316364163347	1.002
17	9185	6.336364163347	1.002
17	9360	6.356364163347	1.002
17	9441	6.376364163347	1.002
17	9522	6.396364163347	1.002
17	9583	6.416364163347	1.002
17	9589	6.436364163347	1.002
17	9764	6.456364163347	1.002
17	9845	6.476364163347	1.002
17	9926	6.496364163347	1.002
17	9987	6.516364163347	1.002
17	9993	6.536364163347	1.002
17	10168	6.556364163347	1.002
17	10249	6.576364163347	1.002
17	10330	6.596364163347	1.002
17	10391	6.616364163347	1.002
17	10397	6.636364163347	1.002
17	10572	6.656364163347	1.002
17	10653	6.676364163347	1.002
17	10734	6.696364163347	1.002
17	10795	6.716364163347	1.002
17	10801	6.736364163347	1.002
17	10976	6.756364163347	1.002
17	11057	6.776364163347	1.002
17	11138	6.796364163347	1.002
17	11199	6.816364163347	1.002
17	11205	6.836364163347	1.002
17	11370	6.856364163347	1.002
17	11451	6.876364163347	1.002
17	11532	6.896364163347	1.002
17	11593	6.916364163347	1.002
17	11599	6.936364163347	1.002
17	11784	6.956364163347	1.002
17	11865	6.976364163347	1.002
17	11946	6.996364163347	1.002
17	12007	7.016364163347	1.002
17	12013	7.036364163347	1.002
17	12181	7.056364163347	1.002
17	12262	7.076364163347	1.002
17	12343	7.096364163347	1.002
17	12404	7.116364163347	1.002
17	12410	7.136364163347	1.002
17	12575	7.156364163347	1.002
17	12656	7.176364163347	1.002
17	12737	7.196364163347	1.002
17	12798	7.216364163347	1.002
17	12804	7.236364163347	1.002
17	12969	7.256364163347	1.002
17	13050	7.276364163347	1.002
17	13131	7.296364163347	1.002
17	13192	7.316364163347	1.002
17	13198	7.336364163347	1.002
17	13366	7.356364163347	1.002
17	13447	7.376364163347	1.002
17	13528	7.396364163347	1.002
17	13589	7.416364163347	1.002
17	13595	7.436364163347	1.002
17	13770	7.456364163347	1.002
17	13851	7.476364163347	1.002
17	13932	7.496364163347	1.002
17	13993	7.516364163347	1.002
17	13999	7.536364163347	1.002
17	14174	7.556364163347	1.002
17	14255	7.576364163347	1.002
17	14336	7.596364163347	1.002
17	14397	7.616364163347	1.002
17	14403	7.636364163347	1.002
17	14578	7.656364163347	1.002
17	14659	7.676364163347	1.002
17	14740	7.696364163347	1.002
17	14801	7.716364163347	1.002
17	14807	7.736364163347	1.002
17	14982	7.756364163347	1.002
17	15063	7.776364163347	1.002
17	15144	7.796364163347	1.002
17	15205	7.816364163347	1.002
17	15211	7.836364163347	1.002
17	15376	7.856364163347	1.002
17	15457	7.876364163347	1.002
17	15538	7.896364163347	1.002
17	15599	7.916364163347	1.002
17	15605	7.936364163347	1.002
17	15780	7.956364163347	1.002
17	15861	7.976364163347	1.002
17	15942	7.996364163347	1.002
17	16003	8.016364163347	1.002
17	16009	8.036364163347	1.002
17	16174	8.056364163347	1.002
17	16255	8.076364163347	1.002
17	16336	8.096364163347	1.002
17	16397	8.116364163347	1.002
17	16403	8.136364163347	1.002
17	16578	8.156364163347	1.002
17	16659	8.176364163347	1.002
17	16740	8.196364163347	1.002
17	16801	8.216364163347	1.002
17	16807	8.236364163347	1.002
17	16972	8.256364163347	1.002
17	17053	8.276364163347	1.002
17	17134	8.296364163347	1.002
17	17195	8.316364163347	1.002
17	17201	8.336364163347	1.002
17	17366	8.356364163347	1.002
17	17447	8.376364163347	1.002
17	17528	8.396364163347	1.002
17	17589	8.416364163347	1.002
17	17595	8.436364163347	1.002
17	17770	8.456364163347	1.002
17	17851	8.476364163347	1.002
17	17932	8.496364163347	1.002
17	17993	8.516364163347	1.002
17	17999	8.536364163347	1.002
17	18174	8.556364163347	1.002
17	18255	8.576364163347	1.002
17	18336	8.596364163347	1.002
17	18397	8.616364163347	1.002
17	18403	8.636364163347	1.002
17	18568	8.656364163347	1.002
17	18649	8.676364163347	1.002
17	18730	8.696364163347	1.002
17	18791	8.716364163347	1.002
17	18797	8.736364163347	1.002
17	18972	8.756364163347	1.002
17	19053	8.776364163347	1.002
17	19134	8.796364163347	1.002
17	19195	8.816364163347	1.002
17	19201	8.836364163347	1.002
17	19376	8.856364163347	1.002
17	19457	8.876364163347	1.002
17	19538	8.896364163347	1.002
17	19599	8.916364163347	1.002
17	19605	8.936364163347	1.002
17	19790	8.956364163347	1.002
17	19871	8.976364163347	1.002
17	19952	8.996364163347	1.002
17	20013	9.016364163347	1.002
17	20019	9.036364163347	1.002
17	20194	9.056364163347	1.002
17	20275	9.076364163347	1.002
17	20356	9.096364163347	1.002
17	20417	9.116364163347	1.002
17	20423	9.136364163347	1.002
17	20639	9.156364163347	1.002
17	20738	9.176364163347	1.002
17	20837	9.196364163347	1.002
17	20911	9.216364163347	1.002
17	20917	9.236364163347	1.002
17	21120	9.256364163347	1.002
17	21219	9.276364163347	1.002
17	21318	9.296364163347	1.002
17	21392	9.316364163347	1.002
17	21400	9.336364163347	1.002
17	21657	9.356364163347	1.002
17	21789	9.376364163347	1.002
17	21921	9.396364163347	1.002
17	21997	9.416364163347	1.002
17	22005	9.436364163347	1.002
17	22293	9.456364163347	1.002
17	22425	9.476364163347	1.002
17	22557	9.496364163347	1.002
17	22633	9.516364163347	1.002
17	22641	9.536364163347	1.002
17	22921	9.556364163347	1.002
17	23053	9.576364163347	1.002
17	23185	9.596364163347	1.002
17	23261	9.616364163347	1.002
17	23269	9.636364163347	1.002
17	23567	9.656364163347	1.002
17	23699	9.676364163347	1.002
17	23831	9.696364163347	1.002
17	23907	9.716364163347	1.002
17	23915	9.736364163347	1.002
17	24200	9.756364163347	1.002
17	24332	9.776364163347	1.002
17	24464	9.796364163347	1.002
17	24540	9.816364163347	1.002
17	24548	9.836364163347	1.002
17	24827	9.856364163347	1.002
17	24959	9.876364163347	1.002
17	25091	9.896364163347	1.002
17	25167	9.916364163347	1.002
17	25175	9.936364163347	1.002
17	25454	9.956364163347	1.002
17	25586	9.976364163347	1.002
17	25718	9.996364163347	1.002
17	25794	10.016364163347	1.002
17	25802	10.036364163347	1.002
17	26086	10.056364163347	1.002
17	26218	10.076364163347	1.002
17	26350	10.096364163347	1.002
17	26426	10.116364163347	1.002
17	26434	10.136364163347	1.002
17	26722	10.156364163347	1.002
17	26854	10.176364163347	1.002
17	26986	10.196364163347	1.002
17	27062	10.216364163347	1.002
17	27070	10.236364163347	1.002
17	27358	10.256364163347	1.002
17	27490	10.276364163347	1.002
17	27622	10.296364163347	1.002
17	27698	10.316364163347	1.002
17	27706	10.336364163347	1.002
17	27977	10.356364163347	1.002
17	28109	10.376364163347	1.002
17	28241	10.396364163347	1.002
17	28317	10.416364163347	1.002
17	28325	10.436364163347	1.002
17	28609	10.456364163347	1.002
17	28741	10.476364163347	1.002
17	28873	10.496364163347	1.002
17	28949	10.516364163347	1.002
17	28957	10.536364163347	1.002
17	29232	10.556364163347	1.002
17	29364	10.576364163347	1.002
17	29496	10.596364163347	1.002
17	29572	10.616364163347	1.002
17	29580	10.636364163347	1.002
17	29855	10.656364163347	1.002
17	29987	10.676364163347	1.002
17	30119	10.696364163347	1.002
17	30195	10.716364163347	1.002
17	30203	10.736364163347	1.002
17	30491	10.756364163347	1.002
17	30623	10.776364163347	1.002
17	30755	10.796364163347	1.002
17	30831	10.816364163347	1.002
17	30839	10.836364163347	1.002
17	31127	10.856364163347	1.002
17	31259	10.876364163347	1.002
17	31391	10.896364163347	1.002
17	31467	10.916364163347	1.002
17	31475	10.936364163347	1.002
17	31772	10.956364163347	1.002
17	31904	10.976364163347	1.002
17	32036	10.996364163347	1.002
17	32112	11.016364163347	1.002
17	32120	11.036364163347	1.002
17	32404	11.056364163347	1.002
17	32536	11.076364163347	1.002
17	32668	11.096364163347	1.002
17	32744	11.116364163347	1.002
17	32752	11.136364163347	1.002
17	33044	11.156364163347	1.002
17	33176	11.176364163347	1.002
17	33308	11.196364163347	1.002
17	33384	11.216364163347	1.002
17	33392	11.236364163347	1.002
17	33663	11.256364163347	1.002
17	33795	11.276364163347	1.002
17	33927	11.296364163347	1.002
17	34003	11.316364163347	1.002
17	34011	11.336364163347	1.002
17	34308	11.356364163347	1.002
17	34440	11.376364163347	1.002
17	34572	11.396364163347	1.002
17	34648	11.416364163347	1.002
17	34656	11.436364163347	1.002
17	34944	11.456364163347	1.002
17	35076	11.476364163347	1.002
17	35208	11.496364163347	1.002
17	35284	11.516364163347	1.002
17	35292	11.536364163347	1.002
17	35567	11.556364163347	1.002
17	35699	11.576364163347	1.002
17	35831	11.596364163347	1.002
17	35907	11.616364163347	1.002
17	35915	11.636364163347	1.002
17	36181	11.656364163347	1.002
17	36313	11.676364163347	1.002
17	36445	11.696364163347	1.002
17	36521	11.716364163347	1.002
17	36529	11.736364163347	1.002
17	36808	11.756364163347	1.002
17	36940	11.776364163347	1.002
17	37072	11.796364163347	1.002
17	37148	11.816364163347	1.002
17	37156	11.836364163347	1.002
17	37440	11.856364163347	1.002
17	37572	11.876364163347	1.002
17	37704	11.896364163347	1.002
17	37780	11.916364163347	1.002
17	37788	11.936364163347	1.002
17	38085	11.956364163347	1.002
17	38217	11.976364163347	1.002
17	38349	11.996364163347	1.002
17	38425	12.016364163347	1.002
17	38433	12.036364163347	1.002
17	38734	12.056364163347	1.002
17	38866	12.076364163347	1.002
17	38998	12.096364163347	1.002
17	39074	12.116364163347	1.002
17	39082	12.136364163347	1.002
17	39412	12.156364163347	1.002
17	39568	12.176364163347	1.002
17	39724	12.196364163347	1.002
17	39813	12.216364163347	1.002
17	39821	12.236364163347	1.002
17	40162	12.256364163347	1.002
17	40318	12.276364163347	1.002
17	40474	12.296364163347	1.002
17	40563	12.316364163347	1.002
17	40571	12.336364163347	1.002
17	40923	12.356364163347	1.002
17	41079	12.376364163347	1.002
17	41235	12.396364163347	1.002
17	41324	12.416364163347	1.002
17	41332	12.436364163347	1.002
17	41684	12.456364163347	1.002
17	41840	12.476364163347	1.002
17	41996	12.496364163347	1.002
17	42085	12.516364163347	1.002
17	42093	12.536364163347	1.002
17	42414	12.556364163347	1.002
17	42570	12.576364163347	1.002
17	42726	12.596364163347	1.002
17	42815	12.616364163347	1.002
17	42823	12.636364163347	1.002
17	43154	12.656364163347	1.002
17	43310	12.676364163347	1.002
17	43466	12.696364163347	1.002
17	43555	12.716364163347	1.002
17	43563	12.736364163347	1.002
17	43916	12.756364163347	1.002
17	44072	12.776364163347	1.002
17	44228	12.796364163347	1.002
17	44317	12.816364163347	1.002
17	44325	12.836364163347	1.002
17	44661	12.856364163347	1.002
17	44817	12.876364163347	1.002
17	44973	12.896364163347	1.002
17	45062	12.916364163347	1.002
17	45070	12.936364163347	1.002
17	45423	12.956364163347	1.002
17	45618	12.976364163347	1.002
17	45813	12.996364163347	1.002
17	45904	13.016364163347	1.002
17	45914	13.036364163347	1.002
17	46341	13.056364163347	1.002
17	46536	13.076364163347	1.002
17	46731	13.096364163347	1.002
17	46822	13.116364163347	1.002
17	46832	13.136364163347	1.002
17	47266	13.156364163347	1.002
17	47461	13.176364163347	1.002
17	47656	13.196364163347	1.002
17	47747	13.216364163347	1.002
17	47757	13.236364163347	1.002
17	48163	13.256364163347	1.002
17	48358	13.276364163347	1.002
17	48553	13.296364163347	1.002
17	48644	13.316364163347	1.002
17	48654	13.336364163347	1.002
17	49061	13.356364163347	1.002
17	49256	13.376364163347	1.002
17	49451	13.396364163347	1.002
17	49542	13.416364163347	1.002
17	49552	13.436364163347	1.002
17	49995	13.456364163347	1.002
17	50190	13.476364163347	1.002
17	50385	13.496364163347	1.002
17	50476	13.516364163347	1.002
17	50486	13.536364163347	1.002
17	50898	13.556364163347	1.002
17	51093	13.576364163347	1.002
17	51288	13.596364163347	1.002
17	51379	13.616364163347	1.002
17	51389	13.636364163347	1.002
17	51832	13.656364163347	1.002
17	52027	13.676364163347	1.002
17	52222	13.696364163347	1.002
17	52313	13.716364163347	1.002
17	52323	13.736364163347	1.002
17	52761	13.756364163347	1.002
17	52956	13.776364163347	1.002
17	53151	13.796364163347	1.002
17	53242	13.816364163347	1.002
17	53252	13.836364163347	1.002
17	53676	13.856364163347	1.002
17	53871	13.876364163347	1.002
17	54066	13.896364163347	1.002
17	54157	13.916364163347	1.002
17	54167	13.936364163347	1.002
17	54574	13.956364163347	1.002
17	54769	13.976364163347	1.002
17	54964	13.996364163347	1.002
17	55055	14.016364163347	1.002
17	55065	14.036364163347	1.002
17	55487	14.056364163347	1.002
17	55682	14.076364163347	1.002
17	55877	14.096364163347	1.002
17	55968	14.116364163347	1.002
17	55978	14.136364163347	1.002
17	56405	14.156364163347	1.002
17	56600	14.176364163347	1.002
17	56795	14.196364163347	1.002
17	56886	14.216364163347	1.002
17	56896	14.236364163347	1.002
17	57296	14.256364163347	1.002
17	57491	14.276364163347	1.002
17	57686	14.296364163347	1.002
17	57777	14.316364163347	1.002
17	57787	14.336364163347	1.002
17	58204	14.356364163347	1.002
17	58399	14.376364163347	1.002
17	58594	14.396364163347	1.002
17	58685	14.416364163347	1.002
17	58695	14.436364163347	1.002
17	59122	14.456364163347	1.002
17	59317	14.476364163347	1.002
17	59512	14.496364163347	1.002
17	59603	14.516364163347	1.002
17	59613	14.536364163347	1.002
17	60051	14.556364163347	1.002
17	60246	14.576364163347	1.002
17	60441	14.596364163347	1.002
17	60532	14.616364163347	1.002
17	60542	14.636364163347	1.002
17	60969	14.656364163347	1.002
17	61164	14.676364163347	1.002
17	61359	14.696364163347	1.002
17	61450	14.716364163347	1.002
17	61460	14.736364163347	1.002
17	61871	14.756364163347	1.002
17	62066	14.776364163347	1.002
17	62261	14.796364163347	1.002
17	62352	14.816364163347	1.002
17	62362	14.836364163347	1.002
17	62784	14.856364163347	1.002
17	62979	14.876364163347	1.002
17	63174	14.896364163347	1.002
17	63265	14.916364163347	1.002
17	63275	14.936364163347	1.002
17	63713	14.956364163347	1.002
17	63908	14.976364163347	1.002
17	64103	14.996364163347	1.002
17	64194	15.016364163347	1.002
17	64204	15.036364163347	1.002
17	64620	15.056364163347	1.002
17	64815	15.076364163347	1.002
17	65010	15.096364163347	1.002
17	65101	15.116364163347	1.002
17	65111	15.136364163347	1.002
17	65533	15.156364163347	1.002
17	65728	15.176364163347	1.002
17	65923	15.196364163347	1.002
17	66014	15.216364163347	1.002
17	66024	15.236364163347	1.002
17	66446	15.256364163347	1.002
17	66641	15.276364163347	1.002
17	66836	15.296364163347	1.002
17	66927	15.316364163347	1.002
17	66937	15.336364163347	1.002
17	67364	15.356364163347	1.002
17	67559	15.376364163347	1.002
17	67754	15.396364163347	1.002
17	67845	15.416364163347	1.002
17	67855	15.436364163347	1.002
17	68277	15.456364163347	1.002
17	68472	15.476364163347	1.002
17	68667	15.496364163347	1.002
17	68758	15.516364163347	1.002
17	68768	15.536364163347	1.002
17	69184	15.556364163347	1.002
17	69379	15.576364163347	1.002
17	69574	15.596364163347	1.002
17	69665	15.616364163347	1.002
17	69675	15.636364163347	1.002
17	70102	15.656364163347	1.002
17	70297	15.676364163347	1.002
17	70492	15.696364163347	1.002
17	70583	15.716364163347	1.002
17	70593	15.736364163347	1.002
17	71015	15.756364163347	1.002
17	71210	15.776364163347	1.002
17	71405	15.796364163347	1.002
17	71496	15.816364163347	1.002
17	71506	15.836364163347	1.002
17	71933	15.856364163347	1.002
17	72128	15.876364163347	1.002
17	72323	15.896364163347	1.002
17	72414	15.916364163347	1.002
17	72424	15.936364163347	1.002
17	72862	15.956364163347	1.002
17	73057	15.976364163347	1.002
17	73252	15.996364163347	1.002
17	73343	16.016364163347	1.002
17	73353	16.036364163347	1.002
17	73791	16.056364163347	1.002
17	73986	16.076364163347	1.002
17	74181	16.096364163347	1.002
17	74272	16.116364163347	1.002
17	74282	16.136364163347	1.002
17	74709	16.156364163347	1.002
17	74904	16.176364163347	1.002
17	75099	16.196364163347	1.002
17	75190	16.216364163347	1.002
17	75200	16.236364163347	1.002
17	75632	16.256364163347	1.002
17	75827	16.276364163347	1.002
17	76022	16.296364163347	1.002
17	76113	16.316364163347	1.002
17	76123	16.336364163347	1.002
17	76550	16.356364163347	1.002
17	76745	16.376364163347	1.002
17	76940	16.396364163347	1.002
17	77031	16.416364163347	1.002
17	77041	16.436364163347	1.002
17	77468	16.456364163347	1.002
17	77663	16.476364163347	1.002
17	77858	16.496364163347	1.002
17	77949	16.516364163347	1.002
17	77959	16.536364163347	1.002
17	78381	16.556364163347	1.002
17	78576	16.576364163347	1.002
17	78771	16.596364163347	1.002
17	78862	16.616364163347	1.002
17	78872	16.636364163347	1.002
17	79283	16.656364163347	1.002
17	79478	16.676364163347	1.002
17	79673	16.696364163347	1.002
17	79764	16.716364163347	1.002
17	79774	16.736364163347	1.002
17	80185	16.756364163347	1.002
17	80380	16.776364163347	1.002
17	80575	16.796364163347	1.002
17	80666	16.816364163347	1.002
17	80676	16.836364163347	1.002
17	81119	16.856364163347	1.002
17	81314	16.876364163347	1.002
17	81509	16.896364163347	1.002
17	81600	16.916364163347	1.002
17	81610	16.936364163347	1.002
17	82021	16.956364163347	1.002
17	82216	16.976364163347	1.002
17	82411	16.996364163347	1.002
17	82502	17.016364163347	1.002
17	82512	17.036364163347	1.002
17	82923	17.056364163347	1.002
17	83118	17.076364163347	1.002
17	83313	17.096364163347	1.002
17	83404	17.116364163347	1.002
17	83414	17.136364163347	1.002
17	83825	17.156364163347	1.002
17	84020	17.176364163347	1.002
17	84215	17.196364163347	1.002
17	84306	17.216364163347	1.002
17	84316	17.236364163347	1.002
17	84737	17.256364163347	1.002
17	84932	17.276364163347	1.002
17	85127	17.296364163347	1.002
17	85218	17.316364163347	1.002
17	85228	17.336364163347	1.002
17	85639	17.356364163347	1.002
17	85834	17.376364163347	1.002
17	86029	17.396364163347	1.002
17	86120	17.416364163347	1.002
17	86130	17.436364163347	1.002
17	86563	17.456364163347	1.002
17	86758	17.476364163347	1.002
17	86953	17.496364163347	1.002
17	87044	17.516364163347	1.002
17	87054	17.536364163347	1.002
17	87481	17.556364163347	1.002
17	87676	17.576364163347	1.002
17	87871	17.596364163347	1.002
17	87962	17.616364163347	1.002
17	87972	17.636364163347	1.002
17	88383	17.656364163347	1.002
17	88578	17.676364163347	1.002
17	88773	17.696364163347	1.002
17	88864	17.716364163347	1.002
17	88874	17.736364163347	1.002
17	89280	17.756364163347	1.002
17	89475	17.776364163347	1.002
17	89670	17.796364163347	1.002
17	89761	17.816364163347	1.002
17	89771	17.836364163347	1.002
17	90193	17.856364163347	1.002
17	90388	17.876364163347	1.002
17	90583	17.896364163347	1.002
17	90674	17.916364163347	1.002
17	90684	17.936364163347	1.002
17	91089	17.956364163347	1.002
17	91284	17.976364163347	1.002
17	91479	17.996364163347	1.002
17	91570	18.016364163347	1.002
17	91580	18.036364163347	1.002
17	92023	18.056364163347	1.002
17	92218	18.076364163347	1.002
17	92413	18.096364163347	1.002
17	92504	18.116364163347	1.002
17	92514	18.136364163347	1.002
17	92952	18.156364163347	1.002
17	93147	18.176364163347	1.002
17	93342	18.196364163347	1.002
17	93433	18.216364163347	1.002
17	93443	18.236364163347	1.002
17	93892	18.256364163347	1.002
17	94087	18.276364163347	1.002
17	94282	18.296364163347	1.002
17	94373	18.316364163347	1.002
17	94383	18.336364163347	1.002
17	94799	18.356364163347	1.002
17	94994	18.376364163347	1.002
17	95189	18.396364163347	1.002
17	95280	18.416364163347	1.002
17	95290	18.436364163347	1.002
17	95712	18.456364163347	1.002
17	95907	18.476364163347	1.002
17	96102	18.496364163347	1.002
17	96193	18.516364163347	1.002
17	96203	18.536364163347	1.002
17	96657	18.556364163347	1.002
17	96852	18.576364163347	1.002
17	97047	18.596364163347	1.002
17	97138	18.616364163347	1.002
17	97148	18.636364163347	1.002
17	97554	18.656364163347	1.002
17	97749	18.676364163347	1.002
17	97944	18.696364163347	1.002
17	98035	18.716364163347	1.002
17	98045	18.736364163347	1.002
17	98483	18.756364163347	1.002
17	98678	18.776364163347	1.002
17	98873	18.796364163347	1.002
17	98964	18.816364163347	1.002
17	98974	18.836364163347	1.002
17	99374	18.856364163347	1.002
17	99569	18.876364163347	1.002
17	99764	18.896364163347	1.002
17	99855	18.916364163347	1.002
17	99865	18.936364163347	1.002
17	100297	18.956364163347	1.002
17	100492	18.976364163347	1.002
17	100687	18.996364163347	1.002
17	100778	19.016364163347	1.002
17	100788	19.036364163347	1.002
17	101210	19.056364163347	1.002
17	101405	19.076364163347	1.002
17	101600	19.096364163347	1.002
17	101691	19.116364163347	1.002
17	101701	19.136364163347	1.002
17	102117	19.156364163347	1.002
17	102312	19.176364163347	1.002
17	102507	19.196364163347	1.002
17	102598	19.216364163347	1.002
17	102608	19.236364163347	1.002
17	103030	19.256364163347	1.002
17	103225	19.276364163347	1.002
17	103420	19.296364163347	1.002
17	103511	19.316364163347	1.002
17	103521	19.336364163347	1.002
17	103948	19.356364163347	1.002
17	104143	19.376364163347	1.002
17	104338	19.396364163347	1.002
17	104429	19.416364163347	1.002
17	104439	19.436364163347	1.002
17	104871	19.456364163347	1.002
17	105066	19.476364163347	1.002
17	105261	19.496364163347	1.002
17	105352	19.516364163347	1.002
17	105362	19.536364163347	1.002
17	105800	19.556364163347	1.002
17	105995	19.576364163347	1.002
17	106190	19.596364163347	1.002
17	106281	19.616364163347	1.002
17	106291	19.636364163347	1.002
17	106691	19.656364163347	1.002
17	106886	19.676364163347	1.002
17	107081	19.696364163347	1.002
17	107172	19.716364163347	1.002
17	107182	19.736364163347	1.002
17	107604	19.756364163347	1.002
17	107799	19.776364163347	1.002
17	107994	19.796364163347	1.002
17	108085	19.816364163347	1.002
17	108095	19.836364163347	1.002
17	108517	19.856364163347	1.002
17	108712	19.876364163347	1.002
17	108907	19.896364163347	1.002
17	108998	19.916364163347	1.002
17	109008	19.936364163347	1.002
17	109446	19.956364163347	1.002
17	109641	19.976364163347	1.002
17	109836	19.996364163347	1.002
17	109927	20.016364163347	1.002
17	109937	20.036364163347	1.002
17	110359	20.056364163347	1.002
17	110554	20.076364163347	1.002
17	110749	20.096364163347	1.002
17	110840	20.116364163347	1.002
17	110850	20.136364163347	1.002
17	111293	20.156364163347	1.002
17	111488	20.176364163347	1.002
17	111683	20.196364163347	1.002
17	111774	20.216364163347	1.002
17	111784	20.236364163347	1.002
17	112190	20.256364163347	1.002
17	112385	20.276364163347	1.002
17	112580	20.296364163347	1.002
17	112671	20.316364163347	1.002
17	112681	20.336364163347	1.002
17	113097	20.356364163347	1.002
17	113292	20.376364163347	1.002
17	113487	20.396364163347	1.002
17	113578	20.416364163347	1.002
17	113588	20.436364163347	1.002
17	114037	20.456364163347	1.002
17	114232	20.476364163347	1.002
17	114427	20.496364163347	1.002
17	114518	20.516364163347	1.002
17	114528	20.536364163347	1.002
17	114939	20.556364163347	1.002
17	115134	20.576364163347	1.002
17	115329	20.596364163347	1.002
17	115420	20.616364163347	1.002
17	115430	20.636364163347	1.002
17	115846	20.656364163347	1.002
17	116041	20.676364163347	1.002
17	116236	20.696364163347	1.002
17	116327	20.716364163347	1.002
17	116337	20.736364163347	1.002
17	116764	20.756364163347	1.002
17	116959	20.776364163347	1.002
17	117154	20.796364163347	1.002
17	117245	20.816364163347	1.002
17	117255	20.836364163347	1.002
17	117666	20.856364163347	1.002
17	117861	20.876364163347	1.002
17	118056	20.896364163347	1.002
17	118147	20.916364163347	1.002
17	118157	20.936364163347	1.002
17	118589	20.956364163347	1.002
17	118784	20.976364163347	1.002
17	118979	20.996364163347	1.002
17	119070	21.016364163347	1.002
17	119080	21.036364163347	1.002
17	119502	21.056364163347	1.002
17	119697	21.076364163347	1.002
17	119892	21.096364163347	1.002
17	119983	21.116364163347	1.002
17	119993	21.136364163347	1.002
17	120409	21.156364163347	1.002
17	120604	21.176364163347	1.002
17	120799	21.196364163347	1.002
17	120890	21.216364163347	1.002
17	120900	21.236364163347	1.002
17	121343	21.256364163347	1.002
17	121538	21.276364163347	1.002
17	121733	21.296364163347	1.002
17	121824	21.316364163347	1.002
17	121834	21.336364163347	1.002
17	122261	21.356364163347	1.002
17	122456	21.376364163347	1.002
17	122651	21.396364163347	1.002
17	122742	21.416364163347	1.002
17	122752	21.436364163347	1.002
17	123185	21.456364163347	1.002
17	123380	21.476364163347	1.002
17	123575	21.496364163347	1.002
17	123666	21.516364163347	1.002
17	123676	21.536364163347	1.002
17	124092	21.556364163347	1.002
17	124287	21.576364163347	1.002
17	124482	21.596364163347	1.002
17	124573	21.616364163347	1.002
17	124583	21.636364163347	1.002
17	125026	21.656364163347	1.002
17	125221	21.676364163347	1.002
17	125416	21.696364163347	1.002
17	125507	21.716364163347	1.002
17	125517	21.736364163347	1.002
17	125950	21.756364163347	1.002
17	126145	21.776364163347	1.002
17	126340	21.796364163347	1.002
17	126431	21.816364163347	1.002
17	126441	21.836364163347	1.002
17	126863	21.856364163347	1.002
17	127058	21.876364163347	1.002
17	127253	21.896364163347	1.002
17	127344	21.916364163347	1.002
17	127354	21.936364163347	1.002
17	127765	21.956364163347	1.002
17	127960	21.976364163347	1.002
17	128155	21.996364163347	1.002
17	128246	22.016364163347	1.002
17	128256	22.036364163347	1.002
17	128694	22.056364163347	1.002
17	128889	22.076364163347	1.002
17	129084	22.096364163347	1.002
17	129175	22.116364163347	1.002
17	129185	22.136364163347	1.002
17	129596	22.156364163347	1.002
17	129791	22.176364163347	1.002
17	129986	22.196364163347	1.002
17	130077	22.216364163347	1.002
17	130087	22.236364163347	1.002
17	130525	22.256364163347	1.002
17	130720	22.276364163347	1.002
17	130915	22.296364163347	1.002
17	131006	22.316364163347	1.002
17	131016	22.336364163347	1.002
17	131443	22.356364163347	1.002
17	131638	22.376364163347	1.002
17	131833	22.396364163347	1.002
17	131924	22.416364163347	1.002
17	131934	22.436364163347	1.002
17	132356	22.456364163347	1.002
17	132551	22.476364163347	1.002
17	132746	22.496364163347	1.002
17	132837	22.516364163347	1.002
17	132847	22.536364163347	1.002
17	133258	22.556364163347	1.002
17	133453	22.576364163347	1.002
17	133648	22.596364163347	1.002
17	133739	22.616364163347	1.002
17	133749	22.636364163347	1.002
17	134176	22.656364163347	1.002
17	134371	22.676364163347	1.002
17	134566	22.696364163347	1.002
17	134657	22.716364163347	1.002
17	134667	22.736364163347	1.002
17	135094	22.756364163347	1.002
17	135289	22.776364163347	1.002
17	135484	22.796364163347	1.002
17	135575	22.816364163347	1.002
17	135585	22.836364163347	1.002
17	136017	22.856364163347	1.002
17	136212	22.876364163347	1.002
17	136407	22.896364163347	1.002
17	136498	22.916364163347	1.002
17	136508	22.936364163347	1.002
17	136957	22.956364163347	1.002
17	137152	22.976364163347	1.002
17	137347	22.996364163347	1.002
17	137438	23.016364163347	1.002
17	137448	23.036364163347	1.002
17	137848	23.056364163347	1.002
17	138043	23.076364163347	1.002
17	138238	23.096364163347	1.002
17	138329	23.116364163347	1.002
17	138339	23.136364163347	1.002
17	138744	23.156364163347	1.002
17	138939	23.176364163347	1.002
17	139134	23.196364163347	1.002
17	139225	23.216364163347	1.002
17	139235	23.236364163347	1.002
17	139640	23.256364163347	1.002
17	139835	23.276364163347	1.002
17	140030	23.296364163347	1.002
17	140121	23.316364163347	1.002
17	140131	23.336364163347	1.002
17	140531	23.356364163347	1.002
17	140726	23.376364163347	1.002
17	140921	23.396364163347	1.002
17	141012	23.416364163347	1.002
17	141022	23.436364163347	1.002
17	141460	23.456364163347	1.002
17	141655	23.476364163347	1.002
17	141850	23.496364163347	1.002
17	141941	23.516364163347	1.002
17	141951	23.536364163347	1.002
17	142389	23.556364163347	1.002
17	142584	23.576364163347	1.002
17	142779	23.596364163347	1.002
17	142870	23.616364163347	1.002
17	142880	23.636364163347	1.002
17	143307	23.656364163347	1.002
17	143502	23.676364163347	1.002
17	143697	23.696364163347	1.002
17	143788	23.716364163347	1.002
17	143798	23.736364163347	1.002
17	144236	23.756364163347	1.002
17	144431	23.776364163347	1.002
17	144626	23.796364163347	1.002
17	144717	23.816364163347	1.002
17	144727	23.836364163347	1.002
17	145154	23.856364163347	1.002
17	145349	23.876364163347	1.002
17	145544	23.896364163347	1.002
17	145635	23.916364163347	1.002
17	145645	23.936364163347	1.002
17	146083	23.956364163347	1.002
17	146278	23.976364163347	1.002
17	146473	23.996364163347	1.002
17	146564	24.016364163347	1.002
17	146574	24.036364163347	1.002
17	146996	24.056364163347	1.002
17	147191	24.076364163347	1.002
17	147386	24.096364163347	1.002
17	147477	24.116364163347	1.002
17	147487	24.136364163347	1.002
17	147925	24.156364163347	1.002
17	148120	24.176364163347	1.002
17	148315	24.196364163347	1.002
17	148406	24.216364163347	1.002
17	148416	24.236364163347	1.002
17	148859	24.256364163347	1.002
17	149054	24.276364163347	1.002
17	149249	24.296364163347	1.002
17	149340	24.316364163347	1.002
17	149350	24.336364163347	1.002
17	149772	24.356364163347	1.002
17	149967	24.376364163347	1.002
17	150162	24.396364163347	1.002
17	150253	24.416364163347	1.002
17	150263	24.436364163347	1.002
17	150668	24.456364163347	1.002
17	150863	24.476364163347	1.002
17	151058	24.496364163347	1.002
17	151149	24.516364163347	1.002
17	151159	24.536364163347	1.002
17	151576	24.556364163347	1.002
17	151771	24.576364163347	1.002
17	151966	24.596364163347	1.002
17	152057	24.616364163347	1.002
17	152067	24.636364163347	1.002
17	152494	24.656364163347	1.002
17	152689	24.676364163347	1.002
17	152884	24.696364163347	1.002
17	152975	24.716364163347	1.002
17	152985	24.736364163347	1.002
17	153407	24.756364163347	1.002
17	153602	24.776364163347	1.002
17	153797	24.796364163347	1.002
17	153888	24.816364163347	1.002
17	153898	24.836364163347	1.002
17	154309	24.856364163347	1.002
17	154504	24.876364163347	1.002
17	154699	24.896364163347	1.002
17	154790	24.916364163347	1.002
17	154800	24.936364163347	1.002
17	155211	24.956364163347	1.002
17	155406	24.976364163347	1.002
17	155601	24.996364163347	1.002
17	155692	25.016364163347	1.002
17	155702	25.036364163347	1.002
17	156129	25.056364163347	1.002
17	156324	25.076364163347	1.002
17	156519	25.096364163347	1.002
17	156610	25.116364163347	1.002
17	156620	25.136364163347	1.002
17	157036	25.156364163347	1.002
17	157231	25.176364163347	1.002
17	157426	25.196364163347	1.002
17	157517	25.216364163347	1.002
17	157527	25.236364163347	1.002
17	157954	25.256364163347	1.002
17	158149	25.276364163347	1.002
17	158344	25.296364163347	1.002
17	158435	25.316364163347	1.002
17	158445	25.336364163347	1.002
17	158861	25.356364163347	1.002
17	159056	25.376364163347	1.002
17	159251	25.396364163347	1.002
17	159342	25.416364163347	1.002
17	159352	25.436364163347	1.002
17	159795	25.456364163347	1.002
17	159990	25.476364163347	1.002
17	160185	25.496364163347	1.002
17	160276	25.516364163347	1.002
17	160286	25.536364163347	1.002
17	160719	25.556364163347	1.002
17	160914	25.576364163347	1.002
17	161109	25.596364163347	1.002
17	161200	25.616364163347	1.002
17	161210	25.636364163347	1.002
17	161637	25.656364163347	1.002
17	161832	25.676364163347	1.002
17	162027	25.696364163347	1.002
17	162118	25.716364163347	1.002
17	162128	25.736364163347	1.002
17	162555	25.756364163347	1.002
17	162750	25.776364163347	1.002
17	162945	25.796364163347	1.002
17	163036	25.816364163347	1.002
17	163046	25.836364163347	1.002
17	163463	25.856364163347	1.002
17	163658	25.876364163347	1.002
17	163853	25.896364163347	1.002
17	163944	25.916364163347	1.002
17	163954	25.936364163347	1.002
17	164408	25.956364163347	1.002
17	164603	25.976364163347	1.002
17	164798	25.996364163347	1.002
17	164889	26.016364163347	1.002
17	164899	26.036364163347	1.002
17	165294	26.056364163347	1.002
17	165489	26.076364163347	1.002
17	165684	26.096364163347	1.002
17	165775	26.116364163347	1.002
17	165785	26.136364163347	1.002
17	166218	26.156364163347	1.002
17	166413	26.176364163347	1.002
17	166608	26.196364163347	1.002
17	166699	26.216364163347	1.002
17	166709	26.236364163347	1.002
17	167131	26.256364163347	1.002
17	167326	26.276364163347	1.002
17	167521	26.296364163347	1.002
17	167612	26.316364163347	1.002
17	167622	26.336364163347	1.002
17	168044	26.356364163347	1.002
17	168239	26.376364163347	1.002
17	168434	26.396364163347	1.002
17	168525	26.416364163347	1.002
17	168535	26.436364163347	1.002
17	168946	26.456364163347	1.002
17	169141	26.476364163347	1.002
17	169336	26.496364163347	1.002
17	169427	26.516364163347	1.002
17	169437	26.536364163347	1.002
17	169848	26.556364163347	1.002
17	170043	26.576364163347	1.002
17	170238	26.596364163347	1.002
17	170329	26.616364163347	1.002
17	170339	26.636364163347	1.002
17	170766	26.656364163347	1.002
17	170961	26.676364163347	1.002
17	171156	26.696364163347	1.002
17	171247	26.716364163347	1.002
17	171257	26.736364163347	1.002
17	171684	26.756364163347	1.002
17	171879	26.776364163347	1.002
17	172074	26.796364163347	1.002
17	172165	26.816364163347	1.002
17	172175	26.836364163347	1.002
17	172613	26.856364163347	1.002
17	172808	26.876364163347	1.002
17	173003	26.896364163347	1.002
17	173094	26.916364163347	1.002
17	173104	26.936364163347	1.002
17	173526	26.956364163347	1.002
17	173721	26.976364163347	1.002
17	173916	26.996364163347	1.002
17	174007	27.016364163347	1.002
17	174017	27.036364163347	1.002
17	174417	27.056364163347	1.002
17	174612	27.076364163347	1.002
17	174807	27.096364163347	1.002
17	174898	27.116364163347	1.002
17	174908	27.136364163347	1.002
17	175330	27.156364163347	1.002
17	175525	27.176364163347	1.002
17	175720	27.196364163347	1.002
17	175811	27.216364163347	1.002
17	175821	27.236364163347	1.002
17	176248	27.256364163347	1.002
17	176443	27.276364163347	1.002
17	176638	27.296364163347	1.002
17	176729	27.316364163347	1.002
17	176739	27.336364163347	1.002
17	177155	27.356364163347	1.002
17	177350	27.376364163347	1.002
17	177545	27.396364163347	1.002
17	177636	27.416364163347	1.002
17	177646	27.436364163347	1.002
17	178057	27.456364163347	1.002
17	178252	27.476364163347	1.002
17	178447	27.496364163347	1.002
17	178538	27.516364163347	1.002
17	178548	27.536364163347	1.002
17	178981	27.556364163347	1.002
17	179176	27.576364163347	1.002
17	179371	27.596364163347	1.002
17	179462	27.616364163347	1.002
17	179472	27.636364163347	1.002
17	179926	27.656364163347	1.002
17	180121	27.676364163347	1.002
17	180316	27.696364163347	1.002
17	180407	27.716364163347	1.002
17	180417	27.736364163347	1.002
17	180834	27.756364163347	1.002
17	181029	27.776364163347	1.002
17	181224	27.796364163347	1.002
17	181315	27.816364163347	1.002
17	181325	27.836364163347	1.002
17	181746	27.856364163347	1.002
17	181941	27.876364163347	1.002
17	182136	27.896364163347	1.002
17	182227	27.916364163347	1.002
17	182237	27.936364163347	1.002
17	182680	27.956364163347	1.002
17	182875	27.976364163347	1.002
17	183070	27.996364163347	1.002
17	183161	28.016364163347	1.002
17	183171	28.036364163347	1.002
17	183609	28.056364163347	1.002
17	183804	28.076364163347	1.002
17	183999	28.096364163347	1.002
17	184090	28.116364163347	1.002
17	184100	28.136364163347	1.002
17	184527	28.156364163347	1.002
17	184722	28.176364163347	1.002
17	184917	28.196364163347	1.002
17	185008	28.216364163347	1.002
17	185018	28.236364163347	1.002
17	185461	28.256364163347	1.002
17	185656	28.276364163347	1.002
17	185851	28.296364163347	1.002
17	185942	28.316364163347	1.002
17	185952	28.336364163347	1.002
17	186358	28.356364163347	1.002
17	186553	28.376364163347	1.002
17	186748	28.396364163347	1.002
17	186839	28.416364163347	1.002
17	186849	28.436364163347	1.002
17	187276	28.456364163347	1.002
17	187471	28.476364163347	1.002
17	187666	28.496364163347	1.002
17	187757	28.516364163347	1.002
17	187767	28.536364163347	1.002
17	188194	28.556364163347	1.002
17	188389	28.576364163347	1.002
17	188584	28.596364163347	1.002
17	188675	28.616364163347	1.002
17	188685	28.636364163347	1.002
17	189091	28.656364163347	1.002
17	189286	28.676364163347	1.002
17	189481	28.696364163347	1.002
17	189572	28.716364163347	1.002
17	189582	28.736364163347	1.002
17	190004	28.756364163347	1.002
17	190199	28.776364163347	1.002
17	190394	28.796364163347	1.002
17	190485	28.816364163347	1.002
17	190495	28.836364163347	1.002
17	190938	28.856364163347	1.002
17	191133	28.876364163347	1.002
17	191328	28.896364163347	1.002
17	191419	28.916364163347	1.002
17	191429	28.936364163347	1.002
17	191856	28.956364163347	1.002
17	192051	28.976364163347	1.002
17	192246	28.996364163347	1.002
17	192337	29.016364163347	1.002
17	192347	29.036364163347	1.002
17	192785	29.056364163347	1.002
17	192980	29.076364163347	1.002
17	193175	29.096364163347	1.002
17	193266	29.116364163347	1.002
17	193276	29.136364163347	1.002
17	193709	29.156364163347	1.002
17	193904	29.176364163347	1.002
17	194099	29.196364163347	1.002
17	194190	29.216364163347	1.002
17	194200	29.236364163347	1.002
17	194633	29.256364163347	1.002
17	194828	29.276364163347	1.002
17	195023	29.296364163347	1.002
17	195114	29.316364163347	1.002
17	195124	29.336364163347	1.002
17	195540	29.356364163347	1.002
17	195735	29.376364163347	1.002
17	195930	29.396364163347	1.002
17	196021	29.416364163347	1.002
17	196031	29.436364163347	1.002
17	196464	29.456364163347	1.002
17	196659	29.476364163347	1.002
17	196854	29.496364163347	1.002
17	196945	29.516364163347	1.002
17	196955	29.536364163347	1.002
17	197393	29.556364163347	1.002
17	197588	29.576364163347	1.002
17	197783	29.596364163347	1.002
17	197874	29.616364163347	1.002
17	197884	29.636364163347	1.002
17	198295	29.656364163347	1.002
17	198490	29.676364163347	1.002
17	198685	29.696364163347	1.002
17	198776	29.716364163347	1.002
17	198786	29.736364163347	1.002
17	199197	29.756364163347	1.002
17	199392	29.776364163347	1.002
17	199587	29.796364163347	1.002
17	199678	29.816364163347	1.002
17	199688	29.836364163347	1.002
17	200126	29.856364163347	1.002
17	200321	29.876364163347	1.002
17	200516	29.896364163347	1.002
17	200607	29.916364163347	1.002
17	200617	29.936364163347	1.002
17	201028	29.956364163347	1.002
17	201223	29.976364163347	1.002
17	201418	29.996364163347	1.002
17	201509	30.016364163347	1.002
17	201519	30.036364163347	1.002
17	201935	30.056364163347	1.002
17	202130	30.076364163347	1.002
17	202325	30.096364163347	1.002
17	202416	30.116364163347	1.002
17	202426	30.136364163347	1.002
17	202848	30.156364163347	1.002
17	203043	30.176364163347	1.002
17	203238	30.196364163347	1.002
17	203329	30.216364163347	1.002
17	203339	30.236364163347	1.002
17	203750	30.256364163347	1.002
17	203945	30.276364163347	1.002
17	204140	30.296364163347	1.002
17	204231	30.316364163347	1.002
17	204241	30.336364163347	1.002
17	204663	30.356364163347	1.002
17	204858	30.376364163347	1.002
17	205053	30.396364163347	1.002
17	205144	30.416364163347	1.002
17	205154	30.436364163347	1.002
17	205576	30.456364163347	1.002
17	205771	30.476364163347	1.002
17	205966	30.496364163347	1.002
17	206057	30.516364163347	1.002
17	206067	30.536364163347	1.002
17	206516	30.556364163347	1.002
17	206711	30.576364163347	1.002
17	206906	30.596364163347	1.002
17	206997	30.616364163347	1.002
17	207007	30.636364163347	1.002
17	207450	30.656364163347	1.002
17	207645	30.676364163347	1.002
17	207840	30.696364163347	1.002
17	207931	30.716364163347	1.002
17	207941	30.736364163347	1.002
17	208363	30.756364163347	1.002
17	208558	30.776364163347	1.002
17	208753	30.796364163347	1.002
17	208844	30.816364163347	1.002
17	208854	30.836364163347	1.002
17	209297	30.856364163347	1.002
17	209492	30.876364163347	1.002
17	209687	30.896364163347	1.002
17	209778	30.916364163347	1.002
17	209788	30.936364163347	1.002
17	210188	30.956364163347	1.002
17	210383	30.976364163347	1.002
17	210578	30.996364163347	1.002
17	210669	31.016364163347	1.002
17	210679	31.036364163347	1.002
17	211101	31.056364163347	1.002
17	211296	31.076364163347	1.002
17	211491	31.096364163347	1.002
17	211582	31.116364163347	1.002
17	211592	31.136364163347	1.002
17	211998	31.156364163347	1.002
17	212193	31.176364163347	1.002
17	212388	31.196364163347	1.002
17	212479	31.216364163347	1.002
17	212489	31.236364163347	1.002
17	212905	31.256364163347	1.002
17	213100	31.276364163347	1.002
17	213295	31.296364163347	1.002
17	213386	31.316364163347	1.002
17	213396	31.336364163347	1.002
17	213839	31.356364163347	1.002
17	214034	31.376364163347	1.002
17	214229	31.396364163347	1.002
17	214320	31.416364163347	1.002
17	214330	31.436364163347	1.002
17	214757	31.456364163347	1.002
17	214952	31.476364163347	1.002
17	215147	31.496364163347	1.002
17	215238	31.516364163347	1.002
17	215248	31.536364163347	1.002
17	215659	31.556364163347	1.002
17	215854	31.576364163347	1.002
17	216049	31.596364163347	1.002
17	216140	31.616364163347	1.002
17	216150	31.636364163347	1.002
17	216577	31.656364163347	1.002
17	216772	31.676364163347	1.002
17	216967	31.696364163347	1.002
17	217058	31.716364163347	1.002
17	217068	31.736364163347	1.002
17	217479	31.756364163347	1.002
17	217674	31.776364163347	1.002
17	217869	31.796364163347	1.002
17	217960	31.816364163347	1.002
17	217970	31.836364163347	1.002
17	218392	31.856364163347	1.002
17	218587	31.876364163347	1.002
17	218782	31.896364163347	1.002
17	218873	31.916364163347	1.002
17	218883	31.936364163347	1.002
17	219305	31.956364163347	1.002
17	219500	31.976364163347	1.002
17	219695	31.996364163347	1.002
17	219786	32.016364163347	1.002
17	219796	32.036364163347	1.002
17	220196	32.056364163347	1.002
17	220391	32.076364163347	1.002
17	220586	32.096364163347	1.002
17	220677	32.116364163347	1.002
17	220687	32.136364163347	1.002
17	221109	32.156364163347	1.002
17	221304	32.176364163347	1.002
17	221499	32.196364163347	1.002
17	221590	32.216364163347	1.002
17	221600	32.236364163347	1.002
17	222022	32.256364163347	1.002
17	222217	32.276364163347	1.002
17	222412	32.296364163347	1.002
17	222503	32.316364163347	1.002
17	222513	32.336364163347	1.002
17	222967	32.356364163347	1.002
17	223162	32.376364163347	1.002
17	223357	32.396364163347	1.002
17	223448	32.416364163347	1.002
17	223458	32.436364163347	1.002
17	223885	32.456364163347	1.002
17	224080	32.476364163347	1.002
17	224275	32.496364163347	1.002
17	224366	32.516364163347	1.002
17	224376	32.536364163347	1.002
17	224803	32.556364163347	1.002
17	224998	32.576364163347	1.002
17	225193	32.596364163347	1.002
17	225284	32.616364163347	1.002
17	225294	32.636364163347	1.002
17	225705	32.656364163347	1.002
17	225900	32.676364163347	1.002
17	226095	32.696364163347	1.002
17	226186	32.716364163347	1.002
17	226196	32.736364163347	1.002
17	226623	32.756364163347	1.002
17	226818	32.776364163347	1.002
17	227013	32.796364163347	1.002
17	227104	32.816364163347	1.002
17	227114	32.836364163347	1.002
17	227541	32.856364163347	1.002
17	227736	32.876364163347	1.002
17	227931	32.896364163347	1.002
17	228022	32.916364163347	1.002
17	228032	32.936364163347	1.002
17	228470	32.956364163347	1.002
17	228665	32.976364163347	1.002
17	228860	32.996364163347	1.002
17	228951	33.016364163347	1.002
17	228961	33.036364163347	1.002
17	229356	33.056364163347	1.002
17	229551	33.076364163347	1.002
17	229746	33.096364163347	1.002
17	229837	33.116364163347	1.002
17	229847	33.136364163347	1.002
17	230247	33.156364163347	1.002
17	230442	33.176364163347	1.002
17	230637	33.196364163347	1.002
17	230728	33.216364163347	1.002
17	230738	33.236364163347	1.002
17	231171	33.256364163347	1.002
17	231366	33.276364163347	1.002
17	231561	33.296364163347	1.002
17	231652	33.316364163347	1.002
17	231662	33.336364163347	1.002
17	232111	33.356364163347	1.002
17	232306	33.376364163347	1.002
17	232501	33.396364163347	1.002
17	232592	33.416364163347	1.002
17	232602	33.436364163347	1.002
17	233029	33.456364163347	1.002
17	233224	33.476364163347	1.002
17	233419	33.496364163347	1.002
17	233510	33.516364163347	1.002
17	233520	33.536364163347	1.002
17	233947	33.556364163347	1.002
17	234142	33.576364163347	1.002
17	234337	33.596364163347	1.002
17	234428	33.616364163347	1.002
17	234438	33.636364163347	1.002
17	234860	33.656364163347	1.002
17	235055	33.676364163347	1.002
17	235250	33.696364163347	1.002
17	235341	33.716364163347	1.002
17	235351	33.736364163347	1.002
17	235768	33.756364163347	1.002
17	235963	33.776364163347	1.002
17	236158	33.796364163347	1.002
17	236249	33.816364163347	1.002
17	236259	33.836364163347	1.002
17	236681	33.856364163347	1.002
17	236876	33.876364163347	1.002
17	237071	33.896364163347	1.002
17	237162	33.916364163347	1.002
17	237172	33.936364163347	1.002
17	237605	33.956364163347	1.002
17	237800	33.976364163347	1.002
17	237995	33.996364163347	1.002
17	238086	34.016364163347	1.002
17	238096	34.036364163347	1.002
17	238501	34.056364163347	1.002
17	238696	34.076364163347	1.002
17	238891	34.096364163347	1.002
17	238982	34.116364163347	1.002
17	238992	34.136364163347	1.002
17	239414	34.156364163347	1.002
17	239609	34.176364163347	1.002
17	239804	34.196364163347	1.002
17	239895	34.216364163347	1.002
17	239905	34.236364163347	1.002
17	240332	34.256364163347	1.002
17	240527	34.276364163347	1.002
17	240722	34.296364163347	1.002
17	240813	34.316364163347	1.002
17	240823	34.336364163347	1.002
17	241261	34.356364163347	1.002
17	241456	34.376364163347	1.002
17	241651	34.396364163347	1.002
17	241742	34.416364163347	1.002
17	241752	34.436364163347	1.002
17	242169	34.456364163347	1.002
17	242364	34.476364163347	1.002
17	242559	34.496364163347	1.002
17	242650	34.516364163347	1.002
17	242660	34.536364163347	1.002
17	243071	34.556364163347	1.002
17	243266	34.576364163347	1.002
17	243461	34.596364163347	1.002
17	243552	34.616364163347	1.002
17	243562	34.636364163347	1.002
17	243973	34.656364163347	1.002
17	244168	34.676364163347	1.002
17	244363	34.696364163347	1.002
17	244454	34.716364163347	1.002
17	244464	34.736364163347	1.002
17	244886	34.756364163347	1.002
17	245081	34.776364163347	1.002
17	245276	34.796364163347	1.002
17	245367	34.816364163347	1.002
17	245377	34.836364163347	1.002
17	245788	34.856364163347	1.002
17	245983	34.876364163347	1.002
17	246178	34.896364163347	1.002
17	246269	34.916364163347	1.002
17	246279	34.936364163347	1.002
17	246696	34.956364163347	1.002
17	246891	34.976364163347	1.002
17	247086	34.996364163347	1.002
17	247177	35.016364163347	1.002
17	247187	35.036364163347	1.002
17	247603	35.056364163347	1.002
17	247798	35.076364163347	1.002
17	247993	35.096364163347	1.002
17	248084	35.116364163347	1.002
17	248094	35.136364163347	1.002
17	248516	35.156364163347	1.002
17	248711	35.176364163347	1.002
17	248906	35.196364163347	1.002
17	248997	35.216364163347	1.002
17	249007	35.236364163347	1.002
17	249461	35.256364163347	1.002
17	249656	35.276364163347	1.002
17	249851	35.296364163347	1.002
17	249942	35.316364163347	1.002
17	249952	35.336364163347	1.002
17	250374	35.356364163347	1.002
17	250569	35.376364163347	1.002
17	250764	35.396364163347	1.002
17	250855	35.416364163347	1.002
17	250865	35.436364163347	1.002
17	251287	35.456364163347	1.002
17	251482	35.476364163347	1.002
17	251677	35.496364163347	1.002
17	251768	35.516364163347	1.002
17	251778	35.536364163347	1.002
17	252205	35.556364163347	1.002
17	252400	35.576364163347	1.002
17	252595	35.596364163347	1.002
17	252686	35.616364163347	1.002
17	252696	35.636364163347	1.002
17	253091	35.656364163347	1.002
17	253286	35.676364163347	1.002
17	253481	35.696364163347	1.002
17	253572	35.716364163347	1.002
17	253582	35.736364163347	1.002
17	254015	35.756364163347	1.002
17	254210	35.776364163347	1.002
17	254405	35.796364163347	1.002
17	254496	35.816364163347	1.002
17	254506	35.836364163347	1.002
17	254928	35.856364163347	1.002
17	255123	35.876364163347	1.002
17	255318	35.896364163347	1.002
17	255409	35.916364163347	1.002
17	255419	35.936364163347	1.002
17	255851	35.956364163347	1.002
17	256046	35.976364163347	1.002
17	256241	35.996364163347	1.002
17	256332	36.016364163347	1.002
17	256342	36.036364163347	1.002
17	256769	36.056364163347	1.002
17	256964	36.076364163347	1.002
17	257159	36.096364163347	1.002
17	257250	36.116364163347	1.002
17	257260	36.136364163347	1.002
17	257660	36.156364163347	1.002
17	257855	36.176364163347	1.002
17	258050	36.196364163347	1.002
17	258141	36.216364163347	1.002
17	258151	36.236364163347	1.002
17	258557	36.256364163347	1.002
17	258752	36.276364163347	1.002
17	258947	36.296364163347	1.002
17	259038	36.316364163347	1.002
17	259048	36.336364163347	1.002
17	259486	36.356364163347	1.002
17	259681	36.376364163347	1.002
17	259876	36.396364163347	1.002
17	259967	36.416364163347	1.002
17	259977	36.436364163347	1.002
17	260404	36.456364163347	1.002
17	260599	36.476364163347	1.002
17	260794	36.496364163347	1.002
17	260885	36.516364163347	1.002
17	260895	36.536364163347	1.002
17	261317	36.556364163347	1.002
17	261512	36.576364163347	1.002
17	261707	36.596364163347	1.002
17	261798	36.616364163347	1.002
17	261808	36.636364163347	1.002
17	262225	36.656364163347	1.002
17	262420	36.676364163347	1.002
17	262615	36.696364163347	1.002
17	262706	36.716364163347	1.002
17	262716	36.736364163347	1.002
17	263127	36.756364163347	1.002
17	263322	36.776364163347	1.002
17	263517	36.796364163347	1.002
17	263608	36.816364163347	1.002
17	263618	36.836364163347	1.002
17	264029	36.856364163347	1.002
17	264224	36.876364163347	1.002
17	264419	36.896364163347	1.002
17	264510	36.916364163347	1.002
17	264520	36.936364163347	1.002
17	264925	36.956364163347	1.002
17	265120	36.976364163347	1.002
17	265315	36.996364163347	1.002
17	265406	37.016364163347	1.002
17	265416	37.036364163347	1.002
17	265854	37.056364163347	1.002
17	266049	37.076364163347	1.002
17	266244	37.096364163347	1.002
17	266335	37.116364163347	1.002
17	266345	37.136364163347	1.002
17	266756	37.156364163347	1.002
17	266951	37.176364163347	1.002
17	267146	37.196364163347	1.002
17	267237	37.216364163347	1.002
17	267247	37.236364163347	1.002
17	267674	37.256364163347	1.002
17	267869	37.276364163347	1.002
17	268064	37.296364163347	1.002
17	268155	37.316364163347	1.002
17	268165	37.336364163347	1.002
17	268587	37.356364163347	1.002
17	268782	37.376364163347	1.002
17	268977	37.396364163347	1.002
17	269068	37.416364163347	1.002
17	269078	37.436364163347	1.002
17	269500	37.456364163347	1.002
17	269695	37.476364163347	1.002
17	269890	37.496364163347	1.002
17	269981	37.516364163347	1.002
17	269991	37.536364163347	1.002
17	270445	37.556364163347	1.002
17	270640	37.576364163347	1.002
17	270835	37.596364163347	1.002
17	270926	37.616364163347	1.002
17	270936	37.636364163347	1.002
17	271385	37.656364163347	1.002
17	271580	37.676364163347	1.002
17	271775	37.696364163347	1.002
17	271866	37.716364163347	1.002
17	271876	37.736364163347	1.002
17	272292	37.756364163347	1.002
17	272487	37.776364163347	1.002
17	272682	37.796364163347	1.002
17	272773	37.816364163347	1.002
17	272783	37.836364163347	1.002
17	273226	37.856364163347	1.002
17	273421	37.876364163347	1.002
17	273616	37.896364163347	1.002
17	273707	37.916364163347	1.002
17	273717	37.936364163347	1.002
17	274144	37.956364163347	1.002
17	274339	37.976364163347	1.002
17	274534	37.996364163347	1.002
17	274625	38.016364163347	1.002
17	274635	38.036364163347	1.002
17	275057	38.056364163347	1.002
17	275252	38.076364163347	1.002
17	275447	38.096364163347	1.002
17	275538	38.116364163347	1.002
17	275548	38.136364163347	1.002
17	275969	38.156364163347	1.002
17	276164	38.176364163347	1.002
17	276359	38.196364163347	1.002
17	276450	38.216364163347	1.002
17	276460	38.236364163347	1.002
17	276882	38.256364163347	1.002
17	277077	38.276364163347	1.002
17	277272	38.296364163347	1.002
17	277363	38.316364163347	1.002
17	277373	38.336364163347	1.002
17	277779	38.356364163347	1.002
17	277974	38.376364163347	1.002
17	278169	38.396364163347	1.002
17	278260	38.416364163347	1.002
17	278270	38.436364163347	1.002
17	278681	38.456364163347	1.002
17	278876	38.476364163347	1.002
17	279071	38.496364163347	1.002
17	279162	38.516364163347	1.002
17	279172	38.536364163347	1.002
17	279589	38.556364163347	1.002
17	279784	38.576364163347	1.002
17	279979	38.596364163347	1.002
17	280070	38.616364163347	1.002
17	280080	38.636364163347	1.002
17	280502	38.656364163347	1.002
17	280697	38.676364163347	1.002
17	280892	38.696364163347	1.002
17	280983	38.716364163347	1.002
17	280993	38.736364163347	1.002
17	281404	38.756364163347	1.002
17	281599	38.776364163347	1.002
17	281794	38.796364163347	1.002
17	281885	38.816364163347	1.002
17	281895	38.836364163347	1.002
17	282333	38.856364163347	1.002
17	282528	38.876364163347	1.002
17	282723	38.896364163347	1.002
17	282814	38.916364163347	1.002
17	282824	38.936364163347	1.002
17	283262	38.956364163347	1.002
17	283457	38.976364163347	1.002
17	283652	38.996364163347	1.002
17	283743	39.016364163347	1.002
17	283753	39.036364163347	1.002
17	284180	39.056364163347	1.002
17	284375	39.076364163347	1.002
17	284570	39.096364163347	1.002
17	284661	39.116364163347	1.002
17	284671	39.136364163347	1.002
17	285093	39.156364163347	1.002
17	285288	39.176364163347	1.002
17	285483	39.196364163347	1.002
17	285574	39.216364163347	1.002
17	285584	39.236364163347	1.002
17	286032	39.256364163347	1.002
17	286227	39.276364163347	1.002
17	286422	39.296364163347	1.002
17	286513	39.316364163347	1.002
17	286523	39.336364163347	1.002
17	286956	39.356364163347	1.002
17	287151	39.376364163347	1.002
17	287346	39.396364163347	1.002
17	287437	39.416364163347	1.002
17	287447	39.436364163347	1.002
17	287874	39.456364163347	1.002
17	288069	39.476364163347	1.002
17	288264	39.496364163347	1.002
17	288355	39.516364163347	1.002
17	288365	39.536364163347	1.002
17	288786	39.556364163347	1.002
17	288981	39.576364163347	1.002
17	289176	39.596364163347	1.002
17	289267	39.616364163347	1.002
17	289277	39.636364163347	1.002
17	289699	39.656364163347	1.002
17	289894	39.676364163347	1.002
17	290089	39.696364163347	1.002
17	290180	39.716364163347	1.002
17	290190	39.736364163347	1.002
17	290601	39.756364163347	1.002
17	290796	39.776364163347	1.002
17	290991	39.796364163347	1.002
17	291082	39.816364163347	1.002
17	291092	39.836364163347	1.002
17	291524	39.856364163347	1.002
17	291719	39.876364163347	1.002
17	291914	39.896364163347	1.002
17	292005	39.916364163347	1.002
17	292015	39.936364163347	1.002
17	292431	39.956364163347	1.002
17	292626	39.976364163347	1.002
17	292821	39.996364163347	1.002
17	292912	40.016364163347	1.002
17	292922	40.036364163347	1.002
17	293354	40.056364163347	1.002
17	293549	40.076364163347	1.002
17	293744	40.096364163347	1.002
17	293835	40.116364163347	1.002
17	293845	40.136364163347	1.002
17	294240	40.156364163347	1.002
17	294435	40.176364163347	1.002
17	294630	40.196364163347	1.002
17	294721	40.216364163347	1.002
17	294731	40.236364163347	1.002
17	295169	40.256364163347	1.002
17	295364	40.276364163347	1.002
17	295559	40.296364163347	1.002
17	295650	40.316364163347	1.002
17	295660	40.336364163347	1.002
17	296098	40.356364163347	1.002
17	296293	40.376364163347	1.002
17	296488	40.396364163347	1.002
17	296579	40.416364163347	1.002
17	296589	40.436364163347	1.002
17	297011	40.456364163347	1.002
17	297206	40.476364163347	1.002
17	297401	40.496364163347	1.002
17	297492	40.516364163347	1.002
17	297502	40.536364163347	1.002
17	297918	40.556364163347	1.002
17	298113	40.576364163347	1.002
17	298308	40.596364163347	1.002
17	298399	40.616364163347	1.002
17	298409	40.636364163347	1.002
17	298847	40.656364163347	1.002
17	299042	40.676364163347	1.002
17	299237	40.696364163347	1.002
17	299328	40.716364163347	1.002
17	299338	40.736364163347	1.002
17	299770	40.756364163347	1.002
17	299965	40.776364163347	1.002
17	300160	40.796364163347	1.002
17	300251	40.816364163347	1.002
17	300261	40.836364163347	1.002
17	300704	40.856364163347	1.002
17	300899	40.876364163347	1.002
17	301094	40.896364163347	1.002
17	301185	40.916364163347	1.002
17	301195	40.936364163347	1.002
17	301617	40.956364163347	1.002
17	301812	40.976364163347	1.002
17	302007	40.996364163347	1.002
17	302098	41.016364163347	1.002
17	302108	41.036364163347	1.002
17	302519	41.056364163347	1.002
17	302714	41.076364163347	1.002
17	302909	41.096364163347	1.002
17	303000	41.116364163347	1.002
17	303010	41.136364163347	1.002
17	303421	41.156364163347	1.002
17	303616	41.176364163347	1.002
17	303811	41.196364163347	1.002
17	303902	41.216364163347	1.002
17	303912	41.236364163347	1.002
17	304339	41.256364163347	1.002
17	304534	41.276364163347	1.002
17	304729	41.296364163347	1.002
17	304820	41.316364163347	1.002
17	304830	41.336364163347	1.002
17	305241	41.356364163347	1.002
17	305436	41.376364163347	1.002
17	305631	41.396364163347	1.002
17	305722	41.416364163347	1.002
17	305732	41.436364163347	1.002
17	306148	41.456364163347	1.002
17	306343	41.476364163347	1.002
17	306538	41.496364163347	1.002
17	306629	41.516364163347	1.002
17	306639	41.536364163347	1.002
17	307039	41.556364163347	1.002
17	307234	41.576364163347	1.002
17	307429	41.596364163347	1.002
17	307520	41.616364163347	1.002
17	307530	41.636364163347	1.002
17	307946	41.656364163347	1.002
17	308141	41.676364163347	1.002
17	308336	41.696364163347	1.002
17	308427	41.716364163347	1.002
17	308437	41.736364163347	1.002
17	308864	41.756364163347	1.002
17	309059	41.776364163347	1.002
17	309254	41.796364163347	1.002
17	309345	41.816364163347	1.002
17	309355	41.836364163347	1.002
17	309788	41.856364163347	1.002
17	309983	41.876364163347	1.002
17	310178	41.896364163347	1.002
17	310269	41.916364163347	1.002
17	310279	41.936364163347	1.002
17	310695	41.956364163347	1.002
17	310890	41.976364163347	1.002
17	311085	41.996364163347	1.002
17	311176	42.016364163347	1.002
17	311186	42.036364163347	1.002
17	311592	42.056364163347	1.002
17	311787	42.076364163347	1.002
17	311982	42.096364163347	1.002
17	312073	42.116364163347	1.002
17	312083	42.136364163347	1.002
17	312510	42.156364163347	1.002
17	312705	42.176364163347	1.002
17	312900	42.196364163347	1.002
17	312991	42.216364163347	1.002
17	313001	42.236364163347	1.002
17	313417	42.256364163347	1.002
17	313612	42.276364163347	1.002
17	313807	42.296364163347	1.002
17	313898	42.316364163347	1.002
17	313908	42.336364163347	1.002
17	314330	42.356364163347	1.002
17	314525	42.376364163347	1.002
17	314720	42.396364163347	1.002
17	314811	42.416364163347	1.002
17	314821	42.436364163347	1.002
17	315248	42.456364163347	1.002
17	315443	42.476364163347	1.002
17	315638	42.496364163347	1.002
17	315729	42.516364163347	1.002
17	315739	42.536364163347	1.002
17	316177	42.556364163347	1.002
17	316372	42.576364163347	1.002
17	316567	42.596364163347	1.002
17	316658	42.616364163347	1.002
17	316668	42.636364163347	1.002
17	317106	42.656364163347	1.002
17	317301	42.676364163347	1.002
17	317496	42.696364163347	1.002
17	317587	42.716364163347	1.002
17	317597	42.736364163347	1.002
17	318029	42.756364163347	1.002
17	318224	42.776364163347	1.002
17	318419	42.796364163347	1.002
17	318510	42.816364163347	1.002
17	318520	42.836364163347	1.002
17	318947	42.856364163347	1.002
17	319142	42.876364163347	1.002
17	319337	42.896364163347	1.002
17	319428	42.916364163347	1.002
17	319438	42.936364163347	1.002
17	319838	42.956364163347	1.002
17	320033	42.976364163347	1.002
17	320228	42.996364163347	1.002
17	320319	43.016364163347	1.002
17	320329	43.036364163347	1.002
17	320740	43.056364163347	1.002
17	320935	43.076364163347	1.002
17	321130	43.096364163347	1.002
17	321221	43.116364163347	1.002
17	321231	43.136364163347	1.002
17	321642	43.156364163347	1.002
17	321837	43.176364163347	1.002
17	322032	43.196364163347	1.002
17	322123	43.216364163347	1.002
17	322133	43.236364163347	1.002
17	322522	43.256364163347	1.002
17	322717	43.276364163347	1.002
17	322912	43.296364163347	1.002
17	323003	43.316364163347	1.002
17	323013	43.336364163347	1.002
17	323424	43.356364163347	1.002
17	323619	43.376364163347	1.002
17	323814	43.396364163347	1.002
17	323905	43.416364163347	1.002
17	323915	43.436364163347	1.002
17	324353	43.456364163347	1.002
17	324548	43.476364163347	1.002
17	324743	43.496364163347	1.002
17	324834	43.516364163347	1.002
17	324844	43.536364163347	1.002
17	325282	43.556364163347	1.002
17	325477	43.576364163347	1.002
17	325672	43.596364163347	1.002
17	325763	43.616364163347	1.002
17	325773	43.636364163347	1.002
17	326211	43.656364163347	1.002
17	326406	43.676364163347	1.002
17	326601	43.696364163347	1.002
17	326692	43.716364163347	1.002
17	326702	43.736364163347	1.002
17	327113	43.756364163347	1.002
17	327308	43.776364163347	1.002
17	327503	43.796364163347	1.002
17	327594	43.816364163347	1.002
17	327604	43.836364163347	1.002
17	328031	43.856364163347	1.002
17	328226	43.876364163347	1.002
17	328421	43.896364163347	1.002
17	328512	43.916364163347	1.002
17	328522	43.936364163347	1.002
17	328938	43.956364163347	1.002
17	329133	43.976364163347	1.002
17	329328	43.996364163347	1.002
17	329419	44.016364163347	1.002
17	329429	44.036364163347	1.002
17	329851	44.056364163347	1.002
17	330046	44.076364163347	1.002
17	330241	44.096364163347	1.002
17	330332	44.116364163347	1.002
17	330342	44.136364163347	1.002
17	330769	44.156364163347	1.002
17	330964	44.176364163347	1.002
17	331159	44.196364163347	1.002
17	331250	44.216364163347	1.002
17	331260	44.236364163347	1.002
17	331692	44.256364163347	1.002
17	331887	44.276364163347	1.002
17	332082	44.296364163347	1.002
17	332173	44.316364163347	1.002
17	332183	44.336364163347	1.002
17	332605	44.356364163347	1.002
17	332800	44.376364163347	1.002
17	332995	44.396364163347	1.002
17	333086	44.416364163347	1.002
17	333096	44.436364163347	1.002
17	333523	44.456364163347	1.002
17	333718	44.476364163347	1.002
17	333913	44.496364163347	1.002
17	334004	44.516364163347	1.002
17	334014	44.536364163347	1.002
17	334436	44.556364163347	1.002
17	334631	44.576364163347	1.002
17	334826	44.596364163347	1.002
17	334917	44.616364163347	1.002
17	334927	44.636364163347	1.002
17	335333	44.656364163347	1.002
17	335528	44.676364163347	1.002
17	335723	44.696364163347	1.002
17	335814	44.716364163347	1.002
17	335824	44.736364163347	1.002
17	336262	44.756364163347	1.002
17	336457	44.776364163347	1.002
17	336652	44.796364163347	1.002
17	336743	44.816364163347	1.002
17	336753	44.836364163347	1.002
17	337180	44.856364163347	1.002
17	337375	44.876364163347	1.002
17	337570	44.896364163347	1.002
17	337661	44.916364163347	1.002
17	337671	44.936364163347	1.002
17	338093	44.956364163347	1.002
17	338288	44.976364163347	1.002
17	338483	44.996364163347	1.002
17	338574	45.016364163347	1.002
17	338584	45.036364163347	1.002
17	339022	45.056364163347	1.002
17	339217	45.076364163347	1.002
17	339412	45.096364163347	1.002
17	339503	45.116364163347	1.002
17	339513	45.136364163347	1.002
17	339935	45.156364163347	1.002
17	340130	45.176364163347	1.002
17	340325	45.196364163347	1.002
17	340416	45.216364163347	1.002
17	340426	45.236364163347	1.002
17	340842	45.256364163347	1.002
17	341037	45.276364163347	1.002
17	341232	45.296364163347	1.002
17	341323	45.316364163347	1.002
17	341333	45.336364163347	1.002
17	341750	45.356364163347	1.002
17	341945	45.376364163347	1.002
17	342140	45.396364163347	1.002
17	342231	45.416364163347	1.002
17	342241	45.436364163347	1.002
17	342663	45.456364163347	1.002
17	342858	45.476364163347	1.002
17	343053	45.496364163347	1.002
17	343144	45.516364163347	1.002
17	343154	45.536364163347	1.002
17	343570	45.556364163347	1.002
17	343765	45.576364163347	1.002
17	343960	45.596364163347	1.002
17	344051	45.616364163347	1.002
17	344061	45.636364163347	1.002
17	344478	45.656364163347	1.002
17	344673	45.676364163347	1.002
17	344868	45.696364163347	1.002
17	344959	45.716364163347	1.002
17	344969	45.736364163347	1.002
17	345385	45.756364163347	1.002
17	345580	45.776364163347	1.002
17	345775	45.796364163347	1.002
17	345866	45.816364163347	1.002
17	345876	45.836364163347	1.002
17	346292	45.856364163347	1.002
17	346487	45.876364163347	1.002
17	346682	45.896364163347	1.002
17	346773	45.916364163347	1.002
17	346783	45.936364163347	1.002
17	347194	45.956364163347	1.002
17	347389	45.976364163347	1.002
17	347584	45.996364163347	1.002
17	347675	46.016364163347	1.002
17	347685	46.036364163347	1.002
17	348096	46.056364163347	1.002
17	348291	46.076364163347	1.002
17	348486	46.096364163347	1.002
17	348577	46.116364163347	1.002
17	348587	46.136364163347	1.002
17	348998	46.156364163347	1.002
17	349193	46.176364163347	1.002
17	349388	46.196364163347	1.002
17	349479	46.216364163347	1.002
17	349489	46.236364163347	1.002
17	349895	46.256364163347	1.002
17	350090	46.276364163347	1.002
17	350285	46.296364163347	1.002
17	350376	46.316364163347	1.002
17	350386	46.336364163347	1.002
17	350824	46.356364163347	1.002
17	351019	46.376364163347	1.002
17	351214	46.396364163347	1.002
17	351305	46.416364163347	1.002
17	351315	46.436364163347	1.002
17	351726	46.456364163347	1.002
17	351921	46.476364163347	1.002
17	352116	46.496364163347	1.002
17	352207	46.516364163347	1.002
17	352217	46.536364163347	1.002
17	352628	46.556364163347	1.002
17	352823	46.576364163347	1.002
17	353018	46.596364163347	1.002
17	353109	46.616364163347	1.002
17	353119	46.636364163347	1.002
17	353541	46.656364163347	1.002
17	353736	46.676364163347	1.002
17	353931	46.696364163347	1.002
17	354022	46.716364163347	1.002
17	354032	46.736364163347	1.002
17	354470	46.756364163347	1.002
17	354665	46.776364163347	1.002
17	354860	46.796364163347	1.002
17	354951	46.816364163347	1.002
17	354961	46.836364163347	1.002
17	355372	46.856364163347	1.002
17	355567	46.876364163347	1.002
17	355762	46.896364163347	1.002
17	355853	46.916364163347	1.002
17	355863	46.936364163347	1.002
17	356269	46.956364163347	1.002
17	356464	46.976364163347	1.002
17	356659	46.996364163347	1.002
17	356750	47.016364163347	1.002
17	356760	47.036364163347	1.002
17	357182	47.056364163347	1.002
17	357377	47.076364163347	1.002
17	357572	47.096364163347	1.002
17	357663	47.116364163347	1.002
17	357673	47.136364163347	1.002
17	358089	47.156364163347	1.002
17	358284	47.176364163347	1.002
17	358479	47.196364163347	1.002
17	358570	47.216364163347	1.002
17	358580	47.236364163347	1.002
17	359007	47.256364163347	1.002
17	359202	47.276364163347	1.002
17	359397	47.296364163347	1.002
17	359488	47.316364163347	1.002
17	359498	47.336364163347	1.002
17	359914	47.356364163347	1.002
17	360109	47.376364163347	1.002
17	360304	47.396364163347	1.002
17	360395	47.416364163347	1.002
17	360405	47.436364163347	1.002
17	360843	47.456364163347	1.002
17	361038	47.476364163347	1.002
17	361233	47.496364163347	1.002
17	361324	47.516364163347	1.002
[...]
14	336732	44.800071831871	0.002
14	336762	44.850071831871	0.001
14	337650	44.900071831871	0.002
14	337680	44.950071831871	0.001
14	338563	45.000071831871	0.002
14	338593	45.050071831871	0.001
14	339492	45.100071831871	0.002
14	339522	45.150071831871	0.001
14	340405	45.200071831871	0.002
14	340435	45.250071831871	0.001
14	341312	45.300071831871	0.002
14	341342	45.350071831871	0.001
14	342220	45.400071831871	0.002
14	342250	45.450071831871	0.001
14	343133	45.500071831871	0.002
14	343163	45.550071831871	0.001
14	344040	45.600071831871	0.002
14	344070	45.650071831871	0.001
14	344948	45.700071831871	0.002
14	344978	45.750071831871	0.001
14	345855	45.800071831871	0.002
14	345885	45.850071831871	0.001
14	346762	45.900071831871	0.002
14	346792	45.950071831871	0.001
14	347664	46.000071831871	0.002
14	347694	46.050071831871	0.001
14	348566	46.100071831871	0.002
14	348596	46.150071831871	0.001
14	349468	46.200071831871	0.002
14	349498	46.250071831871	0.001
14	350365	46.300071831871	0.002
14	350395	46.350071831871	0.001
14	351294	46.400071831871	0.002
14	351324	46.450071831871	0.001
14	352196	46.500071831871	0.002
14	352226	46.550071831871	0.001
14	353098	46.600071831871	0.002
14	353128	46.650071831871	0.001
14	354011	46.700071831871	0.002
14	354041	46.750071831871	0.001
14	354940	46.800071831871	0.002
14	354970	46.850071831871	0.001
14	355842	46.900071831871	0.002
14	355872	46.950071831871	0.001
14	356739	47.000071831871	0.002
14	356769	47.050071831871	0.001
14	357652	47.100071831871	0.002
14	357682	47.150071831871	0.001
14	358559	47.200071831871	0.002
14	358589	47.250071831871	0.001
14	359477	47.300071831871	0.002
14	359507	47.350071831871	0.001
14	360384	47.400071831871	0.002
14	360414	47.450071831871	0.001
14	361313	47.500071831871	0.002
14	361343	47.550071831871	0.001
14	362210	47.600071831871	0.002
14	362240	47.650071831871	0.001
14	363107	47.700071831871	0.002
14	363137	47.750071831871	0.001
14	364009	47.800071831871	0.002
14	364039	47.850071831871	0.001
14	364949	47.900071831871	0.002
14	364979	47.950071831871	0.001
14	365867	48.000071831871	0.002
14	365897	48.050071831871	0.001
14	366790	48.100071831871	0.002
14	366820	48.150071831871	0.001
14	367692	48.200071831871	0.002
14	367722	48.250071831871	0.001
14	368594	48.300071831871	0.002
14	368624	48.350071831871	0.001
14	369507	48.400071831871	0.002
14	369537	48.450071831871	0.001
14	370436	48.500071831871	0.002
14	370466	48.550071831871	0.001
14	371349	48.600071831871	0.002
14	371379	48.650071831871	0.001
14	372240	48.700071831871	0.002
14	372270	48.750071831871	0.001
14	373147	48.800071831871	0.002
14	373177	48.850071831871	0.001
14	374065	48.900071831871	0.002
14	374095	48.950071831871	0.001
14	374972	49.000071831871	0.002
14	375002	49.050071831871	0.001
14	375885	49.100071831871	0.002
14	375915	49.150071831871	0.001
14	376792	49.200071831871	0.002
14	376822	49.250071831871	0.001
14	377705	49.300071831871	0.002
14	377735	49.350071831871	0.001
14	378650	49.400071831871	0.002
14	378680	49.450071831871	0.001
14	379557	49.500071831871	0.002
14	379587	49.550071831871	0.001
14	380464	49.600071831871	0.002
14	380494	49.650071831871	0.001
14	381377	49.700071831871	0.002
14	381407	49.750071831871	0.001
14	382290	49.800071831871	0.002
14	382320	49.850071831871	0.001
14	383203	49.900071831871	0.002
14	383233	49.950071831871	0.001
14	384121	50.000071831871	0.002
14	384151	50.050071831871	0.001
14	385034	50.100071831871	0.002
14	385064	50.150071831871	0.001
14	385936	50.200071831871	0.002
14	385966	50.250071831871	0.001
14	386838	50.300071831871	0.002
14	386868	50.350071831871	0.001
14	387762	50.400071831871	0.002
14	387792	50.450071831871	0.001
14	388669	50.500071831871	0.002
14	388699	50.550071831871	0.001
14	389571	50.600071831871	0.002
14	389601	50.650071831871	0.001
14	390484	50.700071831871	0.002
14	390514	50.750071831871	0.001
14	391386	50.800071831871	0.002
14	391416	50.850071831871	0.001
14	392283	50.900071831871	0.002
14	392313	50.950071831871	0.001
14	393201	51.000071831871	0.002
14	393231	51.050071831871	0.001
14	394097	51.100071831871	0.002
14	394127	51.150071831871	0.001
14	395004	51.200071831871	0.002
14	395034	51.250071831871	0.001
14	395917	51.300071831871	0.002
14	395947	51.350071831871	0.001
14	396819	51.400071831871	0.002
14	396849	51.450071831871	0.001
14	397748	51.500071831871	0.002
14	397778	51.550071831871	0.001
14	398650	51.600071831871	0.002
14	398680	51.650071831871	0.001
14	399558	51.700071831871	0.002
14	399588	51.750071831871	0.001
14	400487	51.800071831871	0.002
14	400517	51.850071831871	0.001
14	401389	51.900071831871	0.002
14	401419	51.950071831871	0.001
14	402307	52.000071831871	0.002
14	402337	52.050071831871	0.001
14	403225	52.100071831871	0.002
14	403255	52.150071831871	0.001
14	404143	52.200071831871	0.002
14	404173	52.250071831871	0.001
14	405050	52.300071831871	0.002
14	405080	52.350071831871	0.001
14	405946	52.400071831871	0.002
14	405976	52.450071831871	0.001
14	406853	52.500071831871	0.002
14	406883	52.550071831871	0.001
14	407776	52.600071831871	0.002
14	407806	52.650071831871	0.001
14	408673	52.700071831871	0.002
14	408703	52.750071831871	0.001
14	409618	52.800071831871	0.002
14	409648	52.850071831871	0.001
14	410520	52.900071831871	0.002
14	410550	52.950071831871	0.001
14	411416	53.000071831871	0.002
14	411446	53.050071831871	0.001
14	412334	53.100071831871	0.002
14	412364	53.150071831871	0.001
14	413252	53.200071831871	0.002
14	413282	53.250071831871	0.001
14	414154	53.300071831871	0.002
14	414184	53.350071831871	0.001
14	415083	53.400071831871	0.002
14	415113	53.450071831871	0.001
14	416012	53.500071831871	0.002
14	416042	53.550071831871	0.001
14	416936	53.600071831871	0.002
14	416966	53.650071831871	0.001
14	417827	53.700071831871	0.002
14	417857	53.750071831871	0.001
14	418740	53.800071831871	0.002
14	418770	53.850071831871	0.001
14	419642	53.900071831871	0.002
14	419672	53.950071831871	0.001
14	420565	54.000071831871	0.002
14	420595	54.050071831871	0.001
14	421478	54.100071831871	0.002
14	421508	54.150071831871	0.001
14	422401	54.200071831871	0.002
14	422431	54.250071831871	0.001
14	423325	54.300071831871	0.002
14	423355	54.350071831871	0.001
14	424216	54.400071831871	0.002
14	424246	54.450071831871	0.001
14	425128	54.500071831871	0.002
14	425158	54.550071831871	0.001
14	426062	54.600071831871	0.002
14	426092	54.650071831871	0.001
14	426958	54.700071831871	0.002
14	426988	54.750071831871	0.001
14	427876	54.800071831871	0.002
14	427906	54.850071831871	0.001
14	428800	54.900071831871	0.002
14	428830	54.950071831871	0.001
14	429707	55.000071831871	0.002
14	429737	55.050071831871	0.001
14	430625	55.100071831871	0.002
14	430655	55.150071831871	0.001
14	431538	55.200071831871	0.002
14	431568	55.250071831871	0.001
14	432472	55.300071831871	0.002
14	432502	55.350071831871	0.001
14	433385	55.400071831871	0.002
14	433415	55.450071831871	0.001
14	434292	55.500071831871	0.002
14	434322	55.550071831871	0.001
14	435237	55.600071831871	0.002
14	435267	55.650071831871	0.001
14	436166	55.700071831871	0.002
14	436196	55.750071831871	0.001
14	437068	55.800071831871	0.002
14	437098	55.850071831871	0.001
14	437981	55.900071831871	0.002
14	438011	55.950071831871	0.001
14	438910	56.000071831871	0.002
14	438940	56.050071831871	0.001
14	439834	56.100071831871	0.002
14	439864	56.150071831871	0.001
14	440758	56.200071831871	0.002
14	440788	56.250071831871	0.001
14	441687	56.300071831871	0.002
14	441717	56.350071831871	0.001
14	442611	56.400071831871	0.002
14	442641	56.450071831871	0.001
14	443518	56.500071831871	0.002
14	443548	56.550071831871	0.001
14	444426	56.600071831871	0.002
14	444456	56.650071831871	0.001
14	445323	56.700071831871	0.002
14	445353	56.750071831871	0.001
14	446257	56.800071831871	0.002
14	446287	56.850071831871	0.001
14	447181	56.900071831871	0.002
14	447211	56.950071831871	0.001
14	448104	57.000071831871	0.002
14	448134	57.050071831871	0.001
14	449001	57.100071831871	0.002
14	449031	57.150071831871	0.001
14	449903	57.200071831871	0.002
14	449933	57.250071831871	0.001
14	450832	57.300071831871	0.002
14	450862	57.350071831871	0.001
14	451745	57.400071831871	0.002
14	451775	57.450071831871	0.001
14	452690	57.500071831871	0.002
14	452720	57.550071831871	0.001
14	453603	57.600071831871	0.002
14	453633	57.650071831871	0.001
14	454510	57.700071831871	0.002
14	454540	57.750071831871	0.001
14	455423	57.800071831871	0.002
14	455453	57.850071831871	0.001
14	456320	57.900071831871	0.002
14	456350	57.950071831871	0.001
14	457233	58.000071831871	0.002
14	457263	58.050071831871	0.001
14	458124	58.100071831871	0.002
14	458154	58.150071831871	0.001
14	459015	58.200071831871	0.002
14	459045	58.250071831871	0.001
14	459933	58.300071831871	0.002
14	459963	58.350071831871	0.001
14	460824	58.400071831871	0.002
14	460854	58.450071831871	0.001
14	461731	58.500071831871	0.002
14	461761	58.550071831871	0.001
14	462649	58.600071831871	0.002
14	462679	58.650071831871	0.001
14	463556	58.700071831871	0.002
14	463586	58.750071831871	0.001
14	464469	58.800071831871	0.002
14	464499	58.850071831871	0.001
14	465398	58.900071831871	0.002
14	465428	58.950071831871	0.001
14	466295	59.000071831871	0.002
14	466325	59.050071831871	0.001
14	467197	59.100071831871	0.002
14	467227	59.150071831871	0.001
14	468115	59.200071831871	0.002
14	468145	59.250071831871	0.001
14	469022	59.300071831871	0.002
14	469052	59.350071831871	0.001
14	469924	59.400071831871	0.002
14	469954	59.450071831871	0.001
14	470858	59.500071831871	0.002
14	470888	59.550071831871	0.001
14	471749	59.600071831871	0.002
14	471779	59.650071831871	0.001
14	472656	59.700071831871	0.002
14	472686	59.750071831871	0.001
14	473596	59.800071831871	0.002
14	473626	59.850071831871	0.001
14	474530	59.900071831871	0.002
14	474560	59.950071831871	0.001
14	475443	60.000071831871	0.002
14	475473	60.050071831871	0.001
14	476356	60.100071831871	0.002
14	476386	60.150071831871	0.001
14	477258	60.200071831871	0.002
14	477288	60.250071831871	0.001
14	478166	60.300071831871	0.002
14	478196	60.350071831871	0.001
14	479052	60.400071831871	0.002
14	479082	60.450071831871	0.001
14	480002	60.500071831871	0.002
14	480032	60.550071831871	0.001
14	480925	60.600071831871	0.002
14	480955	60.650071831871	0.001
14	481827	60.700071831871	0.002
14	481857	60.750071831871	0.001
14	482729	60.800071831871	0.002
14	482759	60.850071831871	0.001
14	483647	60.900071831871	0.002
14	483677	60.950071831871	0.001
14	484565	61.000071831871	0.002
14	484595	61.050071831871	0.001
14	485472	61.100071831871	0.002
14	485502	61.150071831871	0.001
14	486374	61.200071831871	0.002
14	486404	61.250071831871	0.001
14	487281	61.300071831871	0.002
14	487311	61.350071831871	0.001
14	488194	61.400071831871	0.002
14	488224	61.450071831871	0.001
14	489096	61.500071831871	0.002
14	489126	61.550071831871	0.001
14	490030	61.600071831871	0.002
14	490055	61.650071831871	0.001
14	490666	61.700071831871	0.002
14	490691	61.750071831871	0.001
14	491311	61.800071831871	0.002
14	491336	61.850071831871	0.001
14	491934	61.900071831871	0.002
14	491959	61.950071831871	0.001
14	492553	62.000071831871	0.002
14	492578	62.050071831871	0.001
14	493189	62.100071831871	0.002
14	493214	62.150071831871	0.001
14	493825	62.200071831871	0.002
14	493850	62.250071831871	0.001
14	494470	62.300071831871	0.002
14	494495	62.350071831871	0.001
14	495106	62.400071831871	0.002
14	495131	62.450071831871	0.001
14	495742	62.500071831871	0.002
14	495767	62.550071831871	0.001
14	496365	62.600071831871	0.002
14	496390	62.650071831871	0.001
14	496979	62.700071831871	0.002
14	497004	62.750071831871	0.001
14	497624	62.800071831871	0.002
14	497649	62.850071831871	0.001
14	498247	62.900071831871	0.002
14	498272	62.950071831871	0.001
14	498883	63.000071831871	0.002
14	498908	63.050071831871	0.001
14	499510	63.100071831871	0.002
14	499535	63.150071831871	0.001
14	500155	63.200071831871	0.002
14	500180	63.250071831871	0.001
14	500795	63.300071831871	0.002
14	500820	63.350071831871	0.001
14	501401	63.400071831871	0.002
14	501426	63.450071831871	0.001
14	502028	63.500071831871	0.002
14	502053	63.550071831871	0.001
14	502647	63.600071831871	0.002
14	502672	63.650071831871	0.001
14	503270	63.700071831871	0.002
14	503295	63.750071831871	0.001
14	503893	63.800071831871	0.002
14	503918	63.850071831871	0.001
14	504503	63.900071831871	0.002
14	504528	63.950071831871	0.001
14	505126	64.000071831871	0.002
14	505151	64.050071831871	0.001
14	505758	64.100071831871	0.002
14	505783	64.150071831871	0.001
14	506385	64.200071831871	0.002
14	506410	64.250071831871	0.001
14	507021	64.300071831871	0.002
14	507046	64.350071831871	0.001
14	507644	64.400071831871	0.002
14	507669	64.450071831871	0.001
14	508289	64.500071831871	0.002
14	508314	64.550071831871	0.001
14	508925	64.600071831871	0.002
14	508945	64.650071831871	0.001
14	509322	64.700071831871	0.002
14	509342	64.750071831871	0.001
14	509706	64.800071831871	0.002
14	509726	64.850071831871	0.001
14	510093	64.900071831871	0.002
14	510113	64.950071831871	0.001
14	510470	65.000071831871	0.002
14	510490	65.050071831871	0.001
14	510864	65.100071831871	0.002
14	510884	65.150071831871	0.001
14	511258	65.200071831871	0.002
14	511278	65.250071831871	0.001
14	511662	65.300071831871	0.002
14	511682	65.350071831871	0.001
14	512066	65.400071831871	0.002
14	512086	65.450071831871	0.001
14	512453	65.500071831871	0.002
14	512473	65.550071831871	0.001
14	512857	65.600071831871	0.002
14	512877	65.650071831871	0.001
14	513261	65.700071831871	0.002
14	513281	65.750071831871	0.001
14	513638	65.800071831871	0.002
14	513658	65.850071831871	0.001
14	514022	65.900071831871	0.002
14	514042	65.950071831871	0.001
14	514416	66.000071831871	0.002
14	514436	66.050071831871	0.001
14	514810	66.100071831871	0.002
14	514830	66.150071831871	0.001
14	515204	66.200071831871	0.002
14	515224	66.250071831871	0.001
14	515608	66.300071831871	0.002
14	515628	66.350071831871	0.001
14	515992	66.400071831871	0.002
14	516012	66.450071831871	0.001
14	516389	66.500071831871	0.002
14	516409	66.550071831871	0.001
14	516766	66.600071831871	0.002
14	516786	66.650071831871	0.001
14	517170	66.700071831871	0.002
14	517190	66.750071831871	0.001
14	517564	66.800071831871	0.002
14	517584	66.850071831871	0.001
14	517958	66.900071831871	0.002
14	517978	66.950071831871	0.001
14	518372	67.000071831871	0.002
14	518392	67.050071831871	0.001
14	518766	67.100071831871	0.002
14	518786	67.150071831871	0.001
14	519150	67.200071831871	0.002
14	519170	67.250071831871	0.001
14	519544	67.300071831871	0.002
14	519564	67.350071831871	0.001
14	519938	67.400071831871	0.002
14	519958	67.450071831871	0.001
14	520332	67.500071831871	0.002
14	520352	67.550071831871	0.001
14	520719	67.600071831871	0.002
14	520739	67.650071831871	0.001
14	521116	67.700071831871	0.002
14	521129	67.750071831871	0.001
14	521319	67.800071831871	0.002
14	521332	67.850071831871	0.001
14	521529	67.900071831871	0.002
14	521542	67.950071831871	0.001
14	521746	68.000071831871	0.002
14	521759	68.050071831871	0.001
14	521956	68.100071831871	0.002
14	521969	68.150071831871	0.001
14	522166	68.200071831871	0.002
14	522179	68.250071831871	0.001
14	522383	68.300071831871	0.002
14	522396	68.350071831871	0.001
14	522586	68.400071831871	0.002
14	522599	68.450071831871	0.001
14	522789	68.500071831871	0.002
14	522802	68.550071831871	0.001
14	523006	68.600071831871	0.002
14	523019	68.650071831871	0.001
14	523216	68.700071831871	0.002
14	523229	68.750071831871	0.001
14	523433	68.800071831871	0.002
14	523446	68.850071831871	0.001
14	523650	68.900071831871	0.002
14	523663	68.950071831871	0.001
14	523860	69.000071831871	0.002
14	523873	69.050071831871	0.001
14	524077	69.100071831871	0.002
14	524090	69.150071831871	0.001
14	524287	69.200071831871	0.002
14	524300	69.250071831871	0.001
14	524497	69.300071831871	0.002
14	524510	69.350071831871	0.001
14	524707	69.400071831871	0.002
14	524720	69.450071831871	0.001
14	524917	69.500071831871	0.002
14	524930	69.550071831871	0.001
14	525127	69.600071831871	0.002
14	525140	69.650071831871	0.001
14	525344	69.700071831871	0.002
14	525357	69.750071831871	0.001
14	525561	69.800071831871	0.002
14	525574	69.850071831871	0.001
14	525771	69.900071831871	0.002
14	525784	69.950071831871	0.001
14	525974	70.000071831871	0.002
14	525987	70.050071831871	0.001
14	526184	70.100071831871	0.002
14	526197	70.150071831871	0.001
14	526394	70.200071831871	0.002
14	526407	70.250071831871	0.001
14	526604	70.300071831871	0.002
14	526617	70.350071831871	0.001
14	526821	70.400071831871	0.002
14	526834	70.450071831871	0.001
14	527038	70.500071831871	0.002
14	527051	70.550071831871	0.001
14	527248	70.600071831871	0.002
14	527255	70.650071831871	0.001
14	527328	70.700071831871	0.002
14	527335	70.750071831871	0.001
14	527408	70.800071831871	0.002
14	527415	70.850071831871	0.001
14	527488	70.900071831871	0.002
14	527495	70.950071831871	0.001
14	527568	71.000071831871	0.002
14	527575	71.050071831871	0.001
14	527648	71.100071831871	0.002
14	527655	71.150071831871	0.001
14	527728	71.200071831871	0.002
14	527735	71.250071831871	0.001
14	527808	71.300071831871	0.002
14	527815	71.350071831871	0.001
14	527888	71.400071831871	0.002
14	527895	71.450071831871	0.001
14	527968	71.500071831871	0.002
14	527975	71.550071831871	0.001
14	528048	71.600071831871	0.002
14	528055	71.650071831871	0.001
14	528128	71.700071831871	0.002
14	528135	71.750071831871	0.001
14	528208	71.800071831871	0.002
14	528215	71.850071831871	0.001
14	528288	71.900071831871	0.002
14	528295	71.950071831871	0.001
14	528368	72.000071831871	0.002
14	528375	72.050071831871	0.001
14	528448	72.100071831871	0.002
14	528455	72.150071831871	0.001
14	528528	72.200071831871	0.002
14	528535	72.250071831871	0.001
14	528608	72.300071831871	0.002
14	528615	72.350071831871	0.001
14	528688	72.400071831871	0.002
14	528695	72.450071831871	0.001
14	528768	72.500071831871	0.002
14	528775	72.550071831871	0.001
14	528848	72.600071831871	0.002
14	528855	72.650071831871	0.001
14	528928	72.700071831871	0.002
14	528935	72.750071831871	0.001
14	529008	72.800071831871	0.002
14	529015	72.850071831871	0.001
14	529088	72.900071831871	0.002
14	529095	72.950071831871	0.001
14	529168	73.000071831871	0.002
14	529175	73.050071831871	0.001
14	529248	73.100071831871	0.002
14	529255	73.150071831871	0.001
14	529328	73.200071831871	0.002
14	529335	73.250071831871	0.001
14	529408	73.300071831871	0.002
14	529415	73.350071831871	0.001
14	529488	73.400071831871	0.002
14	529495	73.450071831871	0.001
14	529568	73.500071831871	0.002
14	529575	73.550071831871	0.001
14	529648	73.600071831871	0.002
14	529655	73.650071831871	0.001
14	529728	73.700071831871	0.002
14	529729	73.750071831871	0.001
14	529730	73.800071831871	0.002
14	529731	73.850071831871	0.001
14	529732	73.900071831871	0.002
14	529733	73.950071831871	0.001
14	529734	74.000071831871	0.002
14	529735	74.050071831871	0.001
14	529736	74.100071831871	0.002
14	529737	74.150071831871	0.001
14	529738	74.200071831871	0.002
14	529739	74.250071831871	0.001
14	529740	74.300071831871	0.002
14	529741	74.350071831871	0.001
14	529742	74.400071831871	0.002
14	529743	74.450071831871	0.001
14	529744	74.500071831871	0.002
14	529745	74.550071831871	0.001
14	529746	74.600071831871	0.002
14	529747	74.650071831871	0.001
14	529748	74.700071831871	0.002
14	529749	74.750071831871	0.001
14	529750	74.800071831871	0.002
14	529751	74.850071831871	0.001
14	529752	74.900071831871	0.002
14	529753	74.950071831871	0.001
14	529754	75.000071831871	0.002
14	529755	75.050071831871	0.001
14	529756	75.100071831871	0.002
14	529757	75.150071831871	0.001
14	529758	75.200071831871	0.002
14	529759	75.250071831871	0.001
14	529760	75.300071831871	0.002
14	529761	75.350071831871	0.001
14	529762	75.400071831871	0.002
14	529763	75.450071831871	0.001
14	529764	75.500071831871	0.002
14	529765	75.550071831871	0.001
14	529766	75.600071831871	0.002
14	529767	75.650071831871	0.001
14	529768	75.700071831871	0.002
14	529769	75.750071831871	0.001
14	529770	75.800071831871	0.002
14	529771	75.850071831871	0.001
14	529772	75.900071831871	0.002
14	529773	75.950071831871	0.001
