version 2
run VoIP-30ms_280B-5-20160923-14:13:45-14674
attr configname VoIP-30ms_280B
attr datetime 20160923-14:13:45
attr experiment VoIP-30ms_280B
attr inifile omnetpp.ini
attr iterationvars ""
attr iterationvars2 $repetition=5
attr measurement ""
attr network SymScenerio
attr processid 14674
attr repetition 5
attr replication #5
attr resultdir results
attr runnumber 5
attr seedset 5
param **.coreDebug false
param **.debug false
param *.**.nic.mac1609_4.bitrate 18Mbps
param *.**.nic.mac1609_4.txPower 20mW
param *.**.nic.mac1609_4.useServiceChannel true
param *.**.nic.phy80211p.analogueModels "xmldoc(\"config.xml\")"
param *.**.nic.phy80211p.decider "xmldoc(\"config.xml\")"
param *.**.nic.phy80211p.sensitivity -89dBm
param *.**.nic.phy80211p.thermalNoise -110dBm
param *.**.nic.phy80211p.usePropagationDelay true
param *.**.nic.phy80211p.useThermalNoise true
param *.annotations.draw false
param *.connectionManager.alpha 2.0
param *.connectionManager.carrierFrequency "5.890e9 Hz"
param *.connectionManager.pMax 20mW
param *.connectionManager.sat -89dBm
param *.connectionManager.sendDirect true
param *.manager.autoShutdown true
param *.manager.host "\"localhost\""
param *.manager.launchConfig "xmldoc(\"map.launchd.xml\")"
param *.manager.margin 25
param *.manager.moduleDisplayString "\"\""
param *.manager.moduleName "\"node\""
param *.manager.moduleType "\"symulacja.veins.nodes.Car\""
param *.manager.port 9999
param *.manager.updateInterval 0.1s
param *.node[*].appl.beaconInterval 1s
param *.node[*].appl.beaconPriority 3
param *.node[*].appl.dataOnSch false
param *.node[*].appl.dataPriority 2
param *.node[*].appl.debug false
param *.node[*].appl.maxOffset 0.005s
param *.node[*].appl.sendBeacons false
param *.node[*].appl.sendData true
param *.node[*].appl.sendVoIP true
param *.node[*].appl.voipInterval 0.030s
param *.node[*].appl.voipLengthBits 2240bits
param *.node[*].appl.voipOnSch true
param *.node[*].appl.voipPriority 3
param *.node[*].applType "\"Sym11p\""
param *.node[*].veinsmobility.x 0
param *.node[*].veinsmobility.y 0
param *.node[*].veinsmobility.z 1.895
param *.node[*].veinsmobilityType "\"symulacja.veins.modules.mobility.traci.TraCIMobility\""
param *.playgroundSizeX 9000m
param *.playgroundSizeY 9000m
param *.playgroundSizeZ 50m
param *.rsu[*].appl.beaconInterval 1s
param *.rsu[*].appl.beaconPriority 3
param *.rsu[*].appl.dataOnSch false
param *.rsu[*].appl.dataPriority 2
param *.rsu[*].appl.debug false
param *.rsu[*].appl.headerLength "256 bit"
param *.rsu[*].appl.maxOffset 0.005s
param *.rsu[*].appl.sendBeacons false
param *.rsu[*].appl.sendData false
param *.rsu[*].appl.sendVoIP false
param *.rsu[*].applType "\"SymRSU11p\""
param *.rsu[0].mobility.x 2160
param *.rsu[0].mobility.y 3100
param *.rsu[0].mobility.z 3
param *.world.use2D false
param *.world.useTorus false

vector 14  SymScenerio.rsu[0].nic.mac1609_4  "Interwały kanałów"  ETV
vector 23  SymScenerio.node[0].veinsmobility  posx  ETV
vector 24  SymScenerio.node[0].veinsmobility  posy  ETV
vector 22  SymScenerio.node[0].nic.mac1609_4  "Interwały kanałów"  ETV
vector 25  SymScenerio.node[0].veinsmobility  speed  ETV
vector 26  SymScenerio.node[0].veinsmobility  acceleration  ETV
vector 27  SymScenerio.node[0].veinsmobility  co2emission  ETV
vector 15  SymScenerio.node[0].appl  "TX Packets"  ETV
vector 16  SymScenerio.node[0].appl  "TX Total"  ETV
vector 17  SymScenerio.node[0].appl  Pakietyzacja  ETV
vector 5  SymScenerio.rsu[0].appl  nodeALL:vector  ETV
attr source  nodeALL
attr title  "Opoznienia ALL, vector"
vector 9  SymScenerio.rsu[0].appl  "RX Packet"  ETV
vector 0  SymScenerio.rsu[0].appl  node0:vector  ETV
attr source  node0
attr title  "Opoznienia node0, vector"
vector 36  SymScenerio.node[1].veinsmobility  posx  ETV
vector 37  SymScenerio.node[1].veinsmobility  posy  ETV
vector 35  SymScenerio.node[1].nic.mac1609_4  "Interwały kanałów"  ETV
vector 38  SymScenerio.node[1].veinsmobility  speed  ETV
vector 39  SymScenerio.node[1].veinsmobility  acceleration  ETV
vector 40  SymScenerio.node[1].veinsmobility  co2emission  ETV
vector 28  SymScenerio.node[1].appl  "TX Packets"  ETV
vector 29  SymScenerio.node[1].appl  "TX Total"  ETV
vector 30  SymScenerio.node[1].appl  Pakietyzacja  ETV
vector 1  SymScenerio.rsu[0].appl  node1:vector  ETV
attr source  node1
attr title  "Opoznienia node1, vector"
vector 49  SymScenerio.node[2].veinsmobility  posx  ETV
vector 50  SymScenerio.node[2].veinsmobility  posy  ETV
vector 48  SymScenerio.node[2].nic.mac1609_4  "Interwały kanałów"  ETV
vector 51  SymScenerio.node[2].veinsmobility  speed  ETV
vector 52  SymScenerio.node[2].veinsmobility  acceleration  ETV
vector 53  SymScenerio.node[2].veinsmobility  co2emission  ETV
vector 41  SymScenerio.node[2].appl  "TX Packets"  ETV
vector 42  SymScenerio.node[2].appl  "TX Total"  ETV
vector 43  SymScenerio.node[2].appl  Pakietyzacja  ETV
vector 2  SymScenerio.rsu[0].appl  node2:vector  ETV
attr source  node2
attr title  "Opoznienia node2, vector"
vector 62  SymScenerio.node[3].veinsmobility  posx  ETV
vector 63  SymScenerio.node[3].veinsmobility  posy  ETV
vector 61  SymScenerio.node[3].nic.mac1609_4  "Interwały kanałów"  ETV
vector 64  SymScenerio.node[3].veinsmobility  speed  ETV
vector 65  SymScenerio.node[3].veinsmobility  acceleration  ETV
vector 66  SymScenerio.node[3].veinsmobility  co2emission  ETV
vector 54  SymScenerio.node[3].appl  "TX Packets"  ETV
vector 55  SymScenerio.node[3].appl  "TX Total"  ETV
vector 56  SymScenerio.node[3].appl  Pakietyzacja  ETV
vector 3  SymScenerio.rsu[0].appl  node3:vector  ETV
attr source  node3
attr title  "Opoznienia node3, vector"
vector 75  SymScenerio.node[4].veinsmobility  posx  ETV
vector 76  SymScenerio.node[4].veinsmobility  posy  ETV
vector 74  SymScenerio.node[4].nic.mac1609_4  "Interwały kanałów"  ETV
vector 77  SymScenerio.node[4].veinsmobility  speed  ETV
vector 78  SymScenerio.node[4].veinsmobility  acceleration  ETV
vector 79  SymScenerio.node[4].veinsmobility  co2emission  ETV
vector 67  SymScenerio.node[4].appl  "TX Packets"  ETV
vector 68  SymScenerio.node[4].appl  "TX Total"  ETV
vector 69  SymScenerio.node[4].appl  Pakietyzacja  ETV
vector 4  SymScenerio.rsu[0].appl  node4:vector  ETV
attr source  node4
attr title  "Opoznienia node4, vector"
17	27	0.574205594994	1.002
17	45	0.604205594994	1.002
17	47	0.634205594994	1.002
17	77	0.664205594994	1.002
17	92	0.694205594994	1.002
17	110	0.724205594994	1.002
17	119	0.754205594994	1.002
17	142	0.784205594994	1.002
17	160	0.814205594994	1.002
17	162	0.844205594994	1.002
17	192	0.874205594994	1.002
17	210	0.904205594994	1.002
17	212	0.934205594994	1.002
17	242	0.964205594994	1.002
17	257	0.994205594994	1.002
17	275	1.024205594994	1.002
17	284	1.054205594994	1.002
17	307	1.084205594994	1.002
17	325	1.114205594994	1.002
17	327	1.144205594994	1.002
17	357	1.174205594994	1.002
17	375	1.204205594994	1.002
17	377	1.234205594994	1.002
17	407	1.264205594994	1.002
17	422	1.294205594994	1.002
17	440	1.324205594994	1.002
17	449	1.354205594994	1.002
17	472	1.384205594994	1.002
17	490	1.414205594994	1.002
17	492	1.444205594994	1.002
17	522	1.474205594994	1.002
17	540	1.504205594994	1.002
17	542	1.534205594994	1.002
17	572	1.564205594994	1.002
17	587	1.594205594994	1.002
17	605	1.624205594994	1.002
17	614	1.654205594994	1.002
17	637	1.684205594994	1.002
17	655	1.714205594994	1.002
17	657	1.744205594994	1.002
17	687	1.774205594994	1.002
17	705	1.804205594994	1.002
17	707	1.834205594994	1.002
17	737	1.864205594994	1.002
17	752	1.894205594994	1.002
17	770	1.924205594994	1.002
17	779	1.954205594994	1.002
17	802	1.984205594994	1.002
17	820	2.014205594994	1.002
17	822	2.044205594994	1.002
17	852	2.074205594994	1.002
17	870	2.104205594994	1.002
17	872	2.134205594994	1.002
17	902	2.164205594994	1.002
17	917	2.194205594994	1.002
17	935	2.224205594994	1.002
17	944	2.254205594994	1.002
17	967	2.284205594994	1.002
17	985	2.314205594994	1.002
17	987	2.344205594994	1.002
17	1017	2.374205594994	1.002
17	1035	2.404205594994	1.002
17	1037	2.434205594994	1.002
17	1067	2.464205594994	1.002
17	1082	2.494205594994	1.002
17	1100	2.524205594994	1.002
17	1109	2.554205594994	1.002
17	1132	2.584205594994	1.002
17	1150	2.614205594994	1.002
17	1152	2.644205594994	1.002
17	1182	2.674205594994	1.002
17	1200	2.704205594994	1.002
17	1202	2.734205594994	1.002
17	1232	2.764205594994	1.002
17	1247	2.794205594994	1.002
17	1265	2.824205594994	1.002
17	1274	2.854205594994	1.002
17	1297	2.884205594994	1.002
17	1315	2.914205594994	1.002
17	1317	2.944205594994	1.002
17	1347	2.974205594994	1.002
17	1365	3.004205594994	1.002
17	1367	3.034205594994	1.002
17	1397	3.064205594994	1.002
17	1412	3.094205594994	1.002
17	1430	3.124205594994	1.002
17	1435	3.154205594994	1.002
17	1475	3.184205594994	1.002
17	1500	3.214205594994	1.002
17	1502	3.244205594994	1.002
17	1545	3.274205594994	1.002
17	1570	3.304205594994	1.002
17	1572	3.334205594994	1.002
17	1615	3.364205594994	1.002
17	1636	3.394205594994	1.002
17	1661	3.424205594994	1.002
17	1673	3.454205594994	1.002
17	1706	3.484205594994	1.002
17	1731	3.514205594994	1.002
17	1733	3.544205594994	1.002
17	1776	3.574205594994	1.002
17	1801	3.604205594994	1.002
17	1803	3.634205594994	1.002
17	1846	3.664205594994	1.002
17	1867	3.694205594994	1.002
17	1892	3.724205594994	1.002
17	1904	3.754205594994	1.002
17	1937	3.784205594994	1.002
17	1962	3.814205594994	1.002
17	1964	3.844205594994	1.002
17	2007	3.874205594994	1.002
17	2032	3.904205594994	1.002
17	2034	3.934205594994	1.002
17	2098	3.964205594994	1.002
17	2140	3.994205594994	1.002
17	2167	4.024205594994	1.002
17	2181	4.054205594994	1.002
17	2266	4.084205594994	1.002
17	2312	4.114205594994	1.002
17	2316	4.144205594994	1.002
17	2399	4.174205594994	1.002
17	2445	4.204205594994	1.002
17	2449	4.234205594994	1.002
17	2525	4.264205594994	1.002
17	2567	4.294205594994	1.002
17	2594	4.324205594994	1.002
17	2608	4.354205594994	1.002
17	2700	4.384205594994	1.002
17	2746	4.414205594994	1.002
17	2750	4.444205594994	1.002
17	2833	4.474205594994	1.002
17	2879	4.504205594994	1.002
17	2883	4.534205594994	1.002
17	2966	4.564205594994	1.002
17	3008	4.594205594994	1.002
17	3035	4.624205594994	1.002
17	3049	4.654205594994	1.002
17	3141	4.684205594994	1.002
17	3187	4.714205594994	1.002
17	3191	4.744205594994	1.002
17	3274	4.774205594994	1.002
17	3320	4.804205594994	1.002
17	3324	4.834205594994	1.002
17	3400	4.864205594994	1.002
17	3442	4.894205594994	1.002
17	3469	4.924205594994	1.002
17	3483	4.954205594994	1.002
17	3575	4.984205594994	1.002
17	3621	5.014205594994	1.002
17	3625	5.044205594994	1.002
17	3708	5.074205594994	1.002
17	3754	5.104205594994	1.002
17	3758	5.134205594994	1.002
17	3834	5.164205594994	1.002
17	3876	5.194205594994	1.002
17	3903	5.224205594994	1.002
17	3917	5.254205594994	1.002
17	4009	5.284205594994	1.002
17	4055	5.314205594994	1.002
17	4059	5.344205594994	1.002
17	4142	5.374205594994	1.002
17	4188	5.404205594994	1.002
17	4192	5.434205594994	1.002
17	4275	5.464205594994	1.002
17	4317	5.494205594994	1.002
17	4344	5.524205594994	1.002
17	4358	5.554205594994	1.002
17	4450	5.584205594994	1.002
17	4496	5.614205594994	1.002
17	4500	5.644205594994	1.002
17	4583	5.674205594994	1.002
17	4629	5.704205594994	1.002
17	4633	5.734205594994	1.002
17	4709	5.764205594994	1.002
17	4751	5.794205594994	1.002
17	4778	5.824205594994	1.002
17	4792	5.854205594994	1.002
17	4884	5.884205594994	1.002
17	4930	5.914205594994	1.002
17	4934	5.944205594994	1.002
17	5017	5.974205594994	1.002
17	5063	6.004205594994	1.002
17	5067	6.034205594994	1.002
17	5143	6.064205594994	1.002
17	5185	6.094205594994	1.002
17	5212	6.124205594994	1.002
17	5229	6.154205594994	1.002
17	5339	6.184205594994	1.002
17	5398	6.214205594994	1.002
17	5402	6.244205594994	1.002
17	5510	6.274205594994	1.002
17	5569	6.304205594994	1.002
17	5573	6.334205594994	1.002
17	5671	6.364205594994	1.002
17	5725	6.394205594994	1.002
17	5759	6.424205594994	1.002
17	5776	6.454205594994	1.002
17	5886	6.484205594994	1.002
17	5945	6.514205594994	1.002
17	5949	6.544205594994	1.002
17	6074	6.574205594994	1.002
17	6160	6.604205594994	1.002
17	6166	6.634205594994	1.002
17	6316	6.664205594994	1.002
17	6397	6.694205594994	1.002
17	6433	6.724205594994	1.002
17	6452	6.754205594994	1.002
17	6639	6.784205594994	1.002
17	6700	6.814205594994	1.002
17	6706	6.844205594994	1.002
17	6881	6.874205594994	1.002
17	6967	6.904205594994	1.002
17	6973	6.934205594994	1.002
17	7123	6.964205594994	1.002
17	7204	6.994205594994	1.002
17	7240	7.024205594994	1.002
17	7259	7.054205594994	1.002
17	7446	7.084205594994	1.002
17	7507	7.114205594994	1.002
17	7513	7.144205594994	1.002
17	7688	7.174205594994	1.002
17	7774	7.204205594994	1.002
17	7780	7.234205594994	1.002
17	7930	7.264205594994	1.002
17	8011	7.294205594994	1.002
17	8047	7.324205594994	1.002
17	8066	7.354205594994	1.002
17	8253	7.384205594994	1.002
17	8314	7.414205594994	1.002
17	8320	7.444205594994	1.002
17	8488	7.474205594994	1.002
17	8574	7.504205594994	1.002
17	8580	7.534205594994	1.002
17	8720	7.564205594994	1.002
17	8801	7.594205594994	1.002
17	8837	7.624205594994	1.002
17	8856	7.654205594994	1.002
17	9053	7.684205594994	1.002
17	9114	7.714205594994	1.002
17	9120	7.744205594994	1.002
17	9285	7.774205594994	1.002
17	9371	7.804205594994	1.002
17	9377	7.834205594994	1.002
17	9520	7.864205594994	1.002
17	9601	7.894205594994	1.002
17	9637	7.924205594994	1.002
17	9656	7.954205594994	1.002
17	9853	7.984205594994	1.002
17	9914	8.014205594994	1.002
17	9920	8.044205594994	1.002
17	10085	8.074205594994	1.002
17	10171	8.104205594994	1.002
17	10177	8.134205594994	1.002
17	10327	8.164205594994	1.002
17	10408	8.194205594994	1.002
17	10444	8.224205594994	1.002
17	10463	8.254205594994	1.002
17	10650	8.284205594994	1.002
17	10711	8.314205594994	1.002
17	10717	8.344205594994	1.002
17	10882	8.374205594994	1.002
17	10968	8.404205594994	1.002
17	10974	8.434205594994	1.002
17	11124	8.464205594994	1.002
17	11205	8.494205594994	1.002
17	11241	8.524205594994	1.002
17	11260	8.554205594994	1.002
17	11440	8.584205594994	1.002
17	11501	8.614205594994	1.002
17	11507	8.644205594994	1.002
17	11682	8.674205594994	1.002
17	11768	8.704205594994	1.002
17	11774	8.734205594994	1.002
17	11907	8.764205594994	1.002
17	11988	8.794205594994	1.002
17	12024	8.824205594994	1.002
17	12043	8.854205594994	1.002
17	12230	8.884205594994	1.002
17	12291	8.914205594994	1.002
17	12297	8.944205594994	1.002
17	12472	8.974205594994	1.002
17	12558	9.004205594994	1.002
17	12564	9.034205594994	1.002
17	12714	9.064205594994	1.002
17	12795	9.094205594994	1.002
17	12831	9.124205594994	1.002
17	12853	9.154205594994	1.002
17	13084	9.184205594994	1.002
17	13158	9.214205594994	1.002
17	13164	9.244205594994	1.002
17	13357	9.274205594994	1.002
17	13462	9.304205594994	1.002
17	13468	9.334205594994	1.002
17	13653	9.364205594994	1.002
17	13752	9.394205594994	1.002
17	13795	9.424205594994	1.002
17	13817	9.454205594994	1.002
17	14048	9.484205594994	1.002
17	14122	9.514205594994	1.002
17	14128	9.544205594994	1.002
17	14343	9.574205594994	1.002
17	14448	9.604205594994	1.002
17	14454	9.634205594994	1.002
17	14646	9.664205594994	1.002
17	14778	9.694205594994	1.002
17	14823	9.724205594994	1.002
17	14847	9.754205594994	1.002
17	15159	9.784205594994	1.002
17	15235	9.814205594994	1.002
17	15243	9.844205594994	1.002
17	15540	9.874205594994	1.002
17	15678	9.904205594994	1.002
17	15686	9.934205594994	1.002
17	15912	9.964205594994	1.002
17	16044	9.994205594994	1.002
17	16089	10.024205594994	1.002
17	16113	10.054205594994	1.002
17	16416	10.084205594994	1.002
17	16492	10.114205594994	1.002
17	16500	10.144205594994	1.002
17	16810	10.174205594994	1.002
17	16948	10.204205594994	1.002
17	16956	10.234205594994	1.002
17	17195	10.264205594994	1.002
17	17327	10.294205594994	1.002
17	17372	10.324205594994	1.002
17	17396	10.354205594994	1.002
17	17721	10.384205594994	1.002
17	17797	10.414205594994	1.002
17	17805	10.444205594994	1.002
17	18102	10.474205594994	1.002
17	18240	10.504205594994	1.002
17	18248	10.534205594994	1.002
17	18483	10.564205594994	1.002
17	18615	10.594205594994	1.002
17	18660	10.624205594994	1.002
17	18684	10.654205594994	1.002
17	18987	10.684205594994	1.002
17	19063	10.714205594994	1.002
17	19071	10.744205594994	1.002
17	19368	10.774205594994	1.002
17	19506	10.804205594994	1.002
17	19514	10.834205594994	1.002
17	19731	10.864205594994	1.002
17	19863	10.894205594994	1.002
17	19908	10.924205594994	1.002
17	19932	10.954205594994	1.002
17	20244	10.984205594994	1.002
17	20320	11.014205594994	1.002
17	20328	11.044205594994	1.002
17	20616	11.074205594994	1.002
17	20754	11.104205594994	1.002
17	20762	11.134205594994	1.002
17	20979	11.164205594994	1.002
17	21111	11.194205594994	1.002
17	21156	11.224205594994	1.002
17	21180	11.254205594994	1.002
17	21483	11.284205594994	1.002
17	21559	11.314205594994	1.002
17	21567	11.344205594994	1.002
17	21864	11.374205594994	1.002
17	22002	11.404205594994	1.002
17	22010	11.434205594994	1.002
17	22236	11.464205594994	1.002
17	22368	11.494205594994	1.002
17	22413	11.524205594994	1.002
17	22437	11.554205594994	1.002
17	22744	11.584205594994	1.002
17	22820	11.614205594994	1.002
17	22828	11.644205594994	1.002
17	23112	11.674205594994	1.002
17	23250	11.704205594994	1.002
17	23258	11.734205594994	1.002
17	23480	11.764205594994	1.002
17	23612	11.794205594994	1.002
17	23657	11.824205594994	1.002
17	23681	11.854205594994	1.002
17	23993	11.884205594994	1.002
17	24069	11.914205594994	1.002
17	24077	11.944205594994	1.002
17	24347	11.974205594994	1.002
17	24485	12.004205594994	1.002
17	24493	12.034205594994	1.002
17	24728	12.064205594994	1.002
17	24860	12.094205594994	1.002
17	24905	12.124205594994	1.002
17	24932	12.154205594994	1.002
17	25291	12.184205594994	1.002
17	25380	12.214205594994	1.002
17	25388	12.244205594994	1.002
17	25745	12.274205594994	1.002
17	25908	12.304205594994	1.002
17	25916	12.334205594994	1.002
17	26180	12.364205594994	1.002
17	26336	12.394205594994	1.002
17	26388	12.424205594994	1.002
17	26415	12.454205594994	1.002
17	26785	12.484205594994	1.002
17	26874	12.514205594994	1.002
17	26882	12.544205594994	1.002
17	27235	12.574205594994	1.002
17	27398	12.604205594994	1.002
17	27406	12.634205594994	1.002
17	27685	12.664205594994	1.002
17	27841	12.694205594994	1.002
17	27893	12.724205594994	1.002
17	27920	12.754205594994	1.002
17	28291	12.784205594994	1.002
17	28380	12.814205594994	1.002
17	28390	12.844205594994	1.002
17	28793	12.874205594994	1.002
17	28958	12.904205594994	1.002
17	28968	12.934205594994	1.002
17	29343	12.964205594994	1.002
17	29538	12.994205594994	1.002
17	29592	13.024205594994	1.002
17	29621	13.054205594994	1.002
17	30082	13.084205594994	1.002
17	30173	13.114205594994	1.002
17	30183	13.144205594994	1.002
17	30637	13.174205594994	1.002
17	30802	13.204205594994	1.002
17	30812	13.234205594994	1.002
17	31162	13.264205594994	1.002
17	31357	13.294205594994	1.002
17	31411	13.324205594994	1.002
17	31440	13.354205594994	1.002
17	31897	13.384205594994	1.002
17	31988	13.414205594994	1.002
17	31998	13.444205594994	1.002
17	32430	13.474205594994	1.002
17	32595	13.504205594994	1.002
17	32605	13.534205594994	1.002
17	32975	13.564205594994	1.002
17	33170	13.594205594994	1.002
17	33224	13.624205594994	1.002
17	33253	13.654205594994	1.002
17	33726	13.684205594994	1.002
17	33817	13.714205594994	1.002
17	33827	13.744205594994	1.002
17	34281	13.774205594994	1.002
17	34446	13.804205594994	1.002
17	34456	13.834205594994	1.002
17	34809	13.864205594994	1.002
17	35004	13.894205594994	1.002
17	35058	13.924205594994	1.002
17	35087	13.954205594994	1.002
17	35533	13.984205594994	1.002
17	35624	14.014205594994	1.002
17	35634	14.044205594994	1.002
17	36088	14.074205594994	1.002
17	36253	14.104205594994	1.002
17	36263	14.134205594994	1.002
17	36628	14.164205594994	1.002
17	36823	14.194205594994	1.002
17	36877	14.224205594994	1.002
17	36906	14.254205594994	1.002
17	37357	14.284205594994	1.002
17	37448	14.314205594994	1.002
17	37458	14.344205594994	1.002
17	37912	14.374205594994	1.002
17	38077	14.404205594994	1.002
17	38087	14.434205594994	1.002
17	38456	14.464205594994	1.002
17	38651	14.494205594994	1.002
17	38705	14.524205594994	1.002
17	38734	14.554205594994	1.002
17	39201	14.584205594994	1.002
17	39292	14.614205594994	1.002
17	39302	14.644205594994	1.002
17	39745	14.674205594994	1.002
17	39910	14.704205594994	1.002
17	39920	14.734205594994	1.002
17	40268	14.764205594994	1.002
17	40463	14.794205594994	1.002
17	40517	14.824205594994	1.002
17	40546	14.854205594994	1.002
17	40986	14.884205594994	1.002
17	41077	14.914205594994	1.002
17	41087	14.944205594994	1.002
17	41553	14.974205594994	1.002
17	41718	15.004205594994	1.002
17	41728	15.034205594994	1.002
17	42124	15.064205594994	1.002
17	42319	15.094205594994	1.002
17	42373	15.124205594994	1.002
17	42402	15.154205594994	1.002
17	42869	15.184205594994	1.002
17	42960	15.214205594994	1.002
17	42970	15.244205594994	1.002
17	43424	15.274205594994	1.002
17	43589	15.304205594994	1.002
17	43599	15.334205594994	1.002
17	43979	15.364205594994	1.002
17	44174	15.394205594994	1.002
17	44228	15.424205594994	1.002
17	44257	15.454205594994	1.002
17	44729	15.484205594994	1.002
17	44820	15.514205594994	1.002
17	44830	15.544205594994	1.002
17	45284	15.574205594994	1.002
17	45449	15.604205594994	1.002
17	45459	15.634205594994	1.002
17	45823	15.664205594994	1.002
17	46018	15.694205594994	1.002
17	46072	15.724205594994	1.002
17	46101	15.754205594994	1.002
17	46557	15.784205594994	1.002
17	46648	15.814205594994	1.002
17	46658	15.844205594994	1.002
17	47112	15.874205594994	1.002
17	47277	15.904205594994	1.002
17	47287	15.934205594994	1.002
17	47656	15.964205594994	1.002
17	47851	15.994205594994	1.002
17	47905	16.024205594994	1.002
17	47934	16.054205594994	1.002
17	48379	16.084205594994	1.002
17	48470	16.114205594994	1.002
17	48480	16.144205594994	1.002
17	48907	16.174205594994	1.002
17	49072	16.204205594994	1.002
17	49082	16.234205594994	1.002
17	49435	16.264205594994	1.002
17	49630	16.294205594994	1.002
17	49684	16.324205594994	1.002
17	49713	16.354205594994	1.002
17	50185	16.384205594994	1.002
17	50276	16.414205594994	1.002
17	50286	16.444205594994	1.002
17	50729	16.474205594994	1.002
17	50894	16.504205594994	1.002
17	50904	16.534205594994	1.002
17	51278	16.564205594994	1.002
17	51473	16.594205594994	1.002
17	51527	16.624205594994	1.002
17	51556	16.654205594994	1.002
17	52028	16.684205594994	1.002
17	52119	16.714205594994	1.002
17	52129	16.744205594994	1.002
17	52556	16.774205594994	1.002
17	52721	16.804205594994	1.002
17	52731	16.834205594994	1.002
17	53100	16.864205594994	1.002
17	53295	16.894205594994	1.002
17	53349	16.924205594994	1.002
17	53378	16.954205594994	1.002
17	53839	16.984205594994	1.002
17	53930	17.014205594994	1.002
17	53940	17.044205594994	1.002
17	54394	17.074205594994	1.002
17	54559	17.104205594994	1.002
17	54569	17.134205594994	1.002
17	54928	17.164205594994	1.002
17	55123	17.194205594994	1.002
17	55177	17.224205594994	1.002
17	55206	17.254205594994	1.002
17	55689	17.284205594994	1.002
17	55780	17.314205594994	1.002
17	55790	17.344205594994	1.002
17	56217	17.374205594994	1.002
17	56382	17.404205594994	1.002
17	56392	17.434205594994	1.002
17	56767	17.464205594994	1.002
17	56962	17.494205594994	1.002
17	57016	17.524205594994	1.002
17	57045	17.554205594994	1.002
17	57496	17.584205594994	1.002
17	57587	17.614205594994	1.002
17	57597	17.644205594994	1.002
17	58030	17.674205594994	1.002
17	58195	17.704205594994	1.002
17	58205	17.734205594994	1.002
17	58569	17.764205594994	1.002
17	58764	17.794205594994	1.002
17	58818	17.824205594994	1.002
17	58847	17.854205594994	1.002
17	59292	17.884205594994	1.002
17	59383	17.914205594994	1.002
17	59393	17.944205594994	1.002
17	59842	17.974205594994	1.002
17	60007	18.004205594994	1.002
17	60017	18.034205594994	1.002
17	60376	18.064205594994	1.002
17	60571	18.094205594994	1.002
17	60625	18.124205594994	1.002
17	60654	18.154205594994	1.002
17	61115	18.184205594994	1.002
17	61206	18.214205594994	1.002
17	61216	18.244205594994	1.002
17	61654	18.274205594994	1.002
17	61819	18.304205594994	1.002
17	61829	18.334205594994	1.002
17	62176	18.364205594994	1.002
17	62371	18.394205594994	1.002
17	62425	18.424205594994	1.002
17	62454	18.454205594994	1.002
17	62910	18.484205594994	1.002
17	63001	18.514205594994	1.002
17	63011	18.544205594994	1.002
17	63465	18.574205594994	1.002
17	63630	18.604205594994	1.002
17	63640	18.634205594994	1.002
17	64004	18.664205594994	1.002
17	64199	18.694205594994	1.002
17	64253	18.724205594994	1.002
17	64282	18.754205594994	1.002
17	64754	18.784205594994	1.002
17	64845	18.814205594994	1.002
17	64855	18.844205594994	1.002
17	65293	18.874205594994	1.002
17	65458	18.904205594994	1.002
17	65468	18.934205594994	1.002
17	65821	18.964205594994	1.002
17	66016	18.994205594994	1.002
17	66070	19.024205594994	1.002
17	66099	19.054205594994	1.002
17	66550	19.084205594994	1.002
17	66641	19.114205594994	1.002
17	66651	19.144205594994	1.002
17	67089	19.174205594994	1.002
17	67254	19.204205594994	1.002
17	67264	19.234205594994	1.002
17	67623	19.264205594994	1.002
17	67818	19.294205594994	1.002
17	67872	19.324205594994	1.002
17	67901	19.354205594994	1.002
17	68362	19.384205594994	1.002
17	68453	19.414205594994	1.002
17	68463	19.444205594994	1.002
17	68906	19.474205594994	1.002
17	69071	19.504205594994	1.002
17	69081	19.534205594994	1.002
17	69434	19.564205594994	1.002
17	69629	19.594205594994	1.002
17	69683	19.624205594994	1.002
17	69712	19.654205594994	1.002
17	70179	19.684205594994	1.002
17	70270	19.714205594994	1.002
17	70280	19.744205594994	1.002
17	70702	19.774205594994	1.002
17	70867	19.804205594994	1.002
17	70877	19.834205594994	1.002
17	71268	19.864205594994	1.002
17	71463	19.894205594994	1.002
17	71517	19.924205594994	1.002
17	71546	19.954205594994	1.002
17	72002	19.984205594994	1.002
17	72093	20.014205594994	1.002
17	72103	20.044205594994	1.002
17	72541	20.074205594994	1.002
17	72706	20.104205594994	1.002
17	72716	20.134205594994	1.002
17	73091	20.164205594994	1.002
17	73286	20.194205594994	1.002
17	73340	20.224205594994	1.002
17	73369	20.254205594994	1.002
17	73841	20.284205594994	1.002
17	73932	20.314205594994	1.002
17	73942	20.344205594994	1.002
17	74396	20.374205594994	1.002
17	74561	20.404205594994	1.002
17	74571	20.434205594994	1.002
17	74946	20.464205594994	1.002
17	75141	20.494205594994	1.002
17	75195	20.524205594994	1.002
17	75224	20.554205594994	1.002
17	75696	20.584205594994	1.002
17	75787	20.614205594994	1.002
17	75797	20.644205594994	1.002
17	76240	20.674205594994	1.002
17	76405	20.704205594994	1.002
17	76415	20.734205594994	1.002
17	76774	20.764205594994	1.002
17	76969	20.794205594994	1.002
17	77023	20.824205594994	1.002
17	77052	20.854205594994	1.002
17	77519	20.884205594994	1.002
17	77610	20.914205594994	1.002
17	77620	20.944205594994	1.002
17	78090	20.974205594994	1.002
17	78255	21.004205594994	1.002
17	78265	21.034205594994	1.002
17	78634	21.064205594994	1.002
17	78829	21.094205594994	1.002
17	78883	21.124205594994	1.002
17	78912	21.154205594994	1.002
17	79368	21.184205594994	1.002
17	79459	21.214205594994	1.002
17	79469	21.244205594994	1.002
17	79907	21.274205594994	1.002
17	80072	21.304205594994	1.002
17	80082	21.334205594994	1.002
17	80435	21.364205594994	1.002
17	80630	21.394205594994	1.002
17	80684	21.424205594994	1.002
17	80713	21.454205594994	1.002
17	81180	21.484205594994	1.002
17	81271	21.514205594994	1.002
17	81281	21.544205594994	1.002
17	81735	21.574205594994	1.002
17	81900	21.604205594994	1.002
17	81910	21.634205594994	1.002
17	82279	21.664205594994	1.002
17	82474	21.694205594994	1.002
17	82528	21.724205594994	1.002
17	82557	21.754205594994	1.002
17	83018	21.784205594994	1.002
17	83109	21.814205594994	1.002
17	83119	21.844205594994	1.002
17	83551	21.874205594994	1.002
17	83716	21.904205594994	1.002
17	83726	21.934205594994	1.002
17	84085	21.964205594994	1.002
17	84280	21.994205594994	1.002
17	84334	22.024205594994	1.002
17	84363	22.054205594994	1.002
17	84819	22.084205594994	1.002
17	84910	22.114205594994	1.002
17	84920	22.144205594994	1.002
17	85369	22.174205594994	1.002
17	85534	22.204205594994	1.002
17	85544	22.234205594994	1.002
17	85940	22.264205594994	1.002
17	86135	22.294205594994	1.002
17	86189	22.324205594994	1.002
17	86218	22.354205594994	1.002
17	86685	22.384205594994	1.002
17	86776	22.414205594994	1.002
17	86786	22.444205594994	1.002
17	87224	22.474205594994	1.002
17	87389	22.504205594994	1.002
17	87399	22.534205594994	1.002
17	87774	22.564205594994	1.002
17	87969	22.594205594994	1.002
17	88023	22.624205594994	1.002
17	88052	22.654205594994	1.002
17	88508	22.684205594994	1.002
17	88599	22.714205594994	1.002
17	88609	22.744205594994	1.002
17	89047	22.774205594994	1.002
17	89212	22.804205594994	1.002
17	89222	22.834205594994	1.002
17	89602	22.864205594994	1.002
17	89797	22.894205594994	1.002
17	89851	22.924205594994	1.002
17	89880	22.954205594994	1.002
17	90368	22.984205594994	1.002
17	90459	23.014205594994	1.002
17	90469	23.044205594994	1.002
17	90902	23.074205594994	1.002
17	91067	23.104205594994	1.002
17	91077	23.134205594994	1.002
17	91441	23.164205594994	1.002
17	91636	23.194205594994	1.002
17	91690	23.224205594994	1.002
17	91719	23.254205594994	1.002
17	92169	23.284205594994	1.002
17	92260	23.314205594994	1.002
17	92270	23.344205594994	1.002
17	92719	23.374205594994	1.002
17	92884	23.404205594994	1.002
17	92894	23.434205594994	1.002
17	93247	23.464205594994	1.002
17	93442	23.494205594994	1.002
17	93496	23.524205594994	1.002
17	93525	23.554205594994	1.002
17	93981	23.584205594994	1.002
17	94072	23.614205594994	1.002
17	94082	23.644205594994	1.002
17	94525	23.674205594994	1.002
17	94690	23.704205594994	1.002
17	94700	23.734205594994	1.002
17	95080	23.764205594994	1.002
17	95275	23.794205594994	1.002
17	95329	23.824205594994	1.002
17	95358	23.854205594994	1.002
17	95819	23.884205594994	1.002
17	95910	23.914205594994	1.002
17	95920	23.944205594994	1.002
17	96347	23.974205594994	1.002
17	96512	24.004205594994	1.002
17	96522	24.034205594994	1.002
17	96886	24.064205594994	1.002
17	97081	24.094205594994	1.002
17	97135	24.124205594994	1.002
17	97164	24.154205594994	1.002
17	97609	24.184205594994	1.002
17	97700	24.214205594994	1.002
17	97710	24.244205594994	1.002
17	98164	24.274205594994	1.002
17	98329	24.304205594994	1.002
17	98339	24.334205594994	1.002
17	98730	24.364205594994	1.002
17	98925	24.394205594994	1.002
17	98979	24.424205594994	1.002
17	99008	24.454205594994	1.002
17	99475	24.484205594994	1.002
17	99566	24.514205594994	1.002
17	99576	24.544205594994	1.002
17	100030	24.574205594994	1.002
17	100195	24.604205594994	1.002
17	100205	24.634205594994	1.002
17	100590	24.664205594994	1.002
17	100785	24.694205594994	1.002
17	100839	24.724205594994	1.002
17	100868	24.754205594994	1.002
17	101335	24.784205594994	1.002
17	101426	24.814205594994	1.002
17	101436	24.844205594994	1.002
17	101879	24.874205594994	1.002
17	102044	24.904205594994	1.002
17	102054	24.934205594994	1.002
17	102407	24.964205594994	1.002
17	102602	24.994205594994	1.002
17	102656	25.024205594994	1.002
17	102685	25.054205594994	1.002
17	103146	25.084205594994	1.002
17	103237	25.114205594994	1.002
17	103247	25.144205594994	1.002
17	103701	25.174205594994	1.002
17	103866	25.204205594994	1.002
17	103876	25.234205594994	1.002
17	104245	25.264205594994	1.002
17	104440	25.294205594994	1.002
17	104494	25.324205594994	1.002
17	104523	25.354205594994	1.002
17	104979	25.384205594994	1.002
17	105070	25.414205594994	1.002
17	105080	25.444205594994	1.002
17	105512	25.474205594994	1.002
17	105677	25.504205594994	1.002
17	105687	25.534205594994	1.002
17	106051	25.564205594994	1.002
17	106246	25.594205594994	1.002
17	106300	25.624205594994	1.002
17	106329	25.654205594994	1.002
17	106774	25.684205594994	1.002
17	106865	25.714205594994	1.002
17	106875	25.744205594994	1.002
17	107329	25.774205594994	1.002
17	107494	25.804205594994	1.002
17	107504	25.834205594994	1.002
17	107884	25.864205594994	1.002
17	108079	25.894205594994	1.002
17	108133	25.924205594994	1.002
17	108162	25.954205594994	1.002
17	108628	25.984205594994	1.002
17	108719	26.014205594994	1.002
17	108729	26.044205594994	1.002
17	109177	26.074205594994	1.002
17	109342	26.104205594994	1.002
17	109352	26.134205594994	1.002
17	109716	26.164205594994	1.002
17	109911	26.194205594994	1.002
17	109965	26.224205594994	1.002
17	109994	26.254205594994	1.002
17	110466	26.284205594994	1.002
17	110557	26.314205594994	1.002
17	110567	26.344205594994	1.002
17	111010	26.374205594994	1.002
17	111175	26.404205594994	1.002
17	111185	26.434205594994	1.002
17	111576	26.464205594994	1.002
17	111771	26.494205594994	1.002
17	111825	26.524205594994	1.002
17	111854	26.554205594994	1.002
17	112342	26.584205594994	1.002
17	112433	26.614205594994	1.002
17	112443	26.644205594994	1.002
17	112908	26.674205594994	1.002
17	113073	26.704205594994	1.002
17	113083	26.734205594994	1.002
17	113447	26.764205594994	1.002
17	113642	26.794205594994	1.002
17	113696	26.824205594994	1.002
17	113725	26.854205594994	1.002
17	114186	26.884205594994	1.002
17	114277	26.914205594994	1.002
17	114287	26.944205594994	1.002
17	114736	26.974205594994	1.002
17	114901	27.004205594994	1.002
17	114911	27.034205594994	1.002
17	115270	27.064205594994	1.002
17	115465	27.094205594994	1.002
17	115519	27.124205594994	1.002
17	115548	27.154205594994	1.002
17	116004	27.184205594994	1.002
17	116095	27.214205594994	1.002
17	116105	27.244205594994	1.002
17	116543	27.274205594994	1.002
17	116708	27.304205594994	1.002
17	116718	27.334205594994	1.002
17	117098	27.364205594994	1.002
17	117293	27.394205594994	1.002
17	117347	27.424205594994	1.002
17	117376	27.454205594994	1.002
17	117832	27.484205594994	1.002
17	117923	27.514205594994	1.002
17	117933	27.544205594994	1.002
17	118381	27.574205594994	1.002
17	118546	27.604205594994	1.002
17	118556	27.634205594994	1.002
17	118936	27.664205594994	1.002
17	119131	27.694205594994	1.002
17	119185	27.724205594994	1.002
17	119214	27.754205594994	1.002
17	119670	27.784205594994	1.002
17	119761	27.814205594994	1.002
17	119771	27.844205594994	1.002
17	120204	27.874205594994	1.002
17	120369	27.904205594994	1.002
17	120379	27.934205594994	1.002
17	120754	27.964205594994	1.002
17	120949	27.994205594994	1.002
17	121003	28.024205594994	1.002
17	121032	28.054205594994	1.002
17	121493	28.084205594994	1.002
17	121584	28.114205594994	1.002
17	121594	28.144205594994	1.002
17	122037	28.174205594994	1.002
17	122202	28.204205594994	1.002
17	122212	28.234205594994	1.002
17	122576	28.264205594994	1.002
17	122771	28.294205594994	1.002
17	122825	28.324205594994	1.002
17	122854	28.354205594994	1.002
17	123321	28.384205594994	1.002
17	123412	28.414205594994	1.002
17	123422	28.444205594994	1.002
17	123849	28.474205594994	1.002
17	124014	28.504205594994	1.002
17	124024	28.534205594994	1.002
17	124404	28.564205594994	1.002
17	124599	28.594205594994	1.002
17	124653	28.624205594994	1.002
17	124682	28.654205594994	1.002
17	125143	28.684205594994	1.002
17	125234	28.714205594994	1.002
17	125244	28.744205594994	1.002
17	125687	28.774205594994	1.002
17	125852	28.804205594994	1.002
17	125862	28.834205594994	1.002
17	126231	28.864205594994	1.002
17	126426	28.894205594994	1.002
17	126480	28.924205594994	1.002
17	126509	28.954205594994	1.002
17	126976	28.984205594994	1.002
17	127067	29.014205594994	1.002
17	127077	29.044205594994	1.002
17	127504	29.074205594994	1.002
17	127669	29.104205594994	1.002
17	127679	29.134205594994	1.002
17	128054	29.164205594994	1.002
17	128249	29.194205594994	1.002
17	128303	29.224205594994	1.002
17	128332	29.254205594994	1.002
17	128799	29.284205594994	1.002
17	128890	29.314205594994	1.002
17	128900	29.344205594994	1.002
17	129349	29.374205594994	1.002
17	129514	29.404205594994	1.002
17	129524	29.434205594994	1.002
17	129904	29.464205594994	1.002
17	130099	29.494205594994	1.002
17	130153	29.524205594994	1.002
17	130182	29.554205594994	1.002
17	130633	29.584205594994	1.002
17	130724	29.614205594994	1.002
17	130734	29.644205594994	1.002
17	131183	29.674205594994	1.002
17	131348	29.704205594994	1.002
17	131358	29.734205594994	1.002
17	131711	29.764205594994	1.002
17	131906	29.794205594994	1.002
17	131960	29.824205594994	1.002
17	131989	29.854205594994	1.002
17	132423	29.884205594994	1.002
17	132514	29.914205594994	1.002
17	132524	29.944205594994	1.002
17	132962	29.974205594994	1.002
17	133127	30.004205594994	1.002
17	133137	30.034205594994	1.002
17	133501	30.064205594994	1.002
17	133696	30.094205594994	1.002
17	133750	30.124205594994	1.002
17	133779	30.154205594994	1.002
17	134246	30.184205594994	1.002
17	134337	30.214205594994	1.002
17	134347	30.244205594994	1.002
17	134796	30.274205594994	1.002
17	134961	30.304205594994	1.002
17	134971	30.334205594994	1.002
17	135362	30.364205594994	1.002
17	135557	30.394205594994	1.002
17	135611	30.424205594994	1.002
17	135640	30.454205594994	1.002
17	136091	30.484205594994	1.002
17	136182	30.514205594994	1.002
17	136192	30.544205594994	1.002
17	136646	30.574205594994	1.002
17	136811	30.604205594994	1.002
17	136821	30.634205594994	1.002
17	137190	30.664205594994	1.002
17	137385	30.694205594994	1.002
17	137439	30.724205594994	1.002
17	137468	30.754205594994	1.002
17	137924	30.784205594994	1.002
17	138015	30.814205594994	1.002
17	138025	30.844205594994	1.002
17	138463	30.874205594994	1.002
17	138628	30.904205594994	1.002
17	138638	30.934205594994	1.002
17	139013	30.964205594994	1.002
17	139208	30.994205594994	1.002
17	139262	31.024205594994	1.002
17	139291	31.054205594994	1.002
17	139752	31.084205594994	1.002
17	139843	31.114205594994	1.002
17	139853	31.144205594994	1.002
17	140296	31.174205594994	1.002
17	140461	31.204205594994	1.002
17	140471	31.234205594994	1.002
17	140824	31.264205594994	1.002
17	141019	31.294205594994	1.002
17	141073	31.324205594994	1.002
17	141102	31.354205594994	1.002
17	141569	31.384205594994	1.002
17	141660	31.414205594994	1.002
17	141670	31.444205594994	1.002
17	142124	31.474205594994	1.002
17	142289	31.504205594994	1.002
17	142299	31.534205594994	1.002
17	142663	31.564205594994	1.002
17	142858	31.594205594994	1.002
17	142912	31.624205594994	1.002
17	142941	31.654205594994	1.002
17	143429	31.684205594994	1.002
17	143520	31.714205594994	1.002
17	143530	31.744205594994	1.002
17	143979	31.774205594994	1.002
17	144144	31.804205594994	1.002
17	144154	31.834205594994	1.002
17	144518	31.864205594994	1.002
17	144713	31.894205594994	1.002
17	144767	31.924205594994	1.002
17	144796	31.954205594994	1.002
17	145247	31.984205594994	1.002
17	145338	32.014205594994	1.002
17	145348	32.044205594994	1.002
17	145791	32.074205594994	1.002
17	145956	32.104205594994	1.002
17	145966	32.134205594994	1.002
17	146341	32.164205594994	1.002
17	146536	32.194205594994	1.002
17	146590	32.224205594994	1.002
17	146619	32.254205594994	1.002
17	147075	32.284205594994	1.002
17	147166	32.314205594994	1.002
17	147176	32.344205594994	1.002
17	147609	32.374205594994	1.002
17	147774	32.404205594994	1.002
17	147784	32.434205594994	1.002
17	148148	32.464205594994	1.002
17	148343	32.494205594994	1.002
17	148397	32.524205594994	1.002
17	148426	32.554205594994	1.002
17	148887	32.584205594994	1.002
17	148978	32.614205594994	1.002
17	148988	32.644205594994	1.002
17	149420	32.674205594994	1.002
17	149585	32.704205594994	1.002
17	149595	32.734205594994	1.002
17	149964	32.764205594994	1.002
17	150159	32.794205594994	1.002
17	150213	32.824205594994	1.002
17	150242	32.854205594994	1.002
17	150698	32.884205594994	1.002
17	150789	32.914205594994	1.002
17	150799	32.944205594994	1.002
17	151248	32.974205594994	1.002
17	151413	33.004205594994	1.002
17	151423	33.034205594994	1.002
17	151787	33.064205594994	1.002
17	151982	33.094205594994	1.002
17	152036	33.124205594994	1.002
17	152065	33.154205594994	1.002
17	152537	33.184205594994	1.002
17	152628	33.214205594994	1.002
17	152638	33.244205594994	1.002
17	153092	33.274205594994	1.002
17	153257	33.304205594994	1.002
17	153267	33.334205594994	1.002
17	153642	33.364205594994	1.002
17	153837	33.394205594994	1.002
17	153891	33.424205594994	1.002
17	153920	33.454205594994	1.002
17	154392	33.484205594994	1.002
17	154483	33.514205594994	1.002
17	154493	33.544205594994	1.002
17	154926	33.574205594994	1.002
17	155091	33.604205594994	1.002
17	155101	33.634205594994	1.002
17	155476	33.664205594994	1.002
17	155671	33.694205594994	1.002
17	155725	33.724205594994	1.002
17	155754	33.754205594994	1.002
17	156226	33.784205594994	1.002
17	156317	33.814205594994	1.002
17	156327	33.844205594994	1.002
17	156765	33.874205594994	1.002
17	156930	33.904205594994	1.002
17	156940	33.934205594994	1.002
17	157299	33.964205594994	1.002
17	157494	33.994205594994	1.002
17	157548	34.024205594994	1.002
17	157577	34.054205594994	1.002
17	158028	34.084205594994	1.002
17	158119	34.114205594994	1.002
17	158129	34.144205594994	1.002
17	158572	34.174205594994	1.002
17	158737	34.204205594994	1.002
17	158747	34.234205594994	1.002
17	159116	34.264205594994	1.002
17	159311	34.294205594994	1.002
17	159365	34.324205594994	1.002
17	159394	34.354205594994	1.002
17	159855	34.384205594994	1.002
17	159946	34.414205594994	1.002
17	159956	34.444205594994	1.002
17	160394	34.474205594994	1.002
17	160559	34.504205594994	1.002
17	160569	34.534205594994	1.002
17	160949	34.564205594994	1.002
17	161144	34.594205594994	1.002
17	161198	34.624205594994	1.002
17	161227	34.654205594994	1.002
17	161678	34.684205594994	1.002
17	161769	34.714205594994	1.002
17	161779	34.744205594994	1.002
17	162217	34.774205594994	1.002
17	162382	34.804205594994	1.002
17	162392	34.834205594994	1.002
17	162767	34.864205594994	1.002
17	162962	34.894205594994	1.002
17	163016	34.924205594994	1.002
17	163045	34.954205594994	1.002
17	163528	34.984205594994	1.002
17	163619	35.014205594994	1.002
17	163629	35.044205594994	1.002
17	164061	35.074205594994	1.002
17	164226	35.104205594994	1.002
17	164236	35.134205594994	1.002
17	164611	35.164205594994	1.002
17	164806	35.194205594994	1.002
17	164860	35.224205594994	1.002
17	164889	35.254205594994	1.002
17	165345	35.284205594994	1.002
17	165436	35.314205594994	1.002
17	165446	35.344205594994	1.002
17	165884	35.374205594994	1.002
17	166049	35.404205594994	1.002
17	166059	35.434205594994	1.002
17	166418	35.464205594994	1.002
17	166613	35.494205594994	1.002
17	166667	35.524205594994	1.002
17	166696	35.554205594994	1.002
17	167152	35.584205594994	1.002
17	167243	35.614205594994	1.002
17	167253	35.644205594994	1.002
17	167691	35.674205594994	1.002
17	167856	35.704205594994	1.002
17	167866	35.734205594994	1.002
17	168214	35.764205594994	1.002
17	168409	35.794205594994	1.002
17	168463	35.824205594994	1.002
17	168492	35.854205594994	1.002
17	168959	35.884205594994	1.002
17	169050	35.914205594994	1.002
17	169060	35.944205594994	1.002
17	169514	35.974205594994	1.002
17	169679	36.004205594994	1.002
17	169689	36.034205594994	1.002
17	170053	36.064205594994	1.002
17	170248	36.094205594994	1.002
17	170302	36.124205594994	1.002
17	170331	36.154205594994	1.002
17	170776	36.184205594994	1.002
17	170867	36.214205594994	1.002
17	170877	36.244205594994	1.002
17	171320	36.274205594994	1.002
17	171485	36.304205594994	1.002
17	171495	36.334205594994	1.002
17	171859	36.364205594994	1.002
17	172054	36.394205594994	1.002
17	172108	36.424205594994	1.002
17	172137	36.454205594994	1.002
17	172620	36.484205594994	1.002
17	172711	36.514205594994	1.002
17	172721	36.544205594994	1.002
17	173169	36.574205594994	1.002
17	173334	36.604205594994	1.002
17	173344	36.634205594994	1.002
17	173697	36.664205594994	1.002
17	173892	36.694205594994	1.002
17	173946	36.724205594994	1.002
17	173975	36.754205594994	1.002
17	174458	36.784205594994	1.002
17	174549	36.814205594994	1.002
17	174559	36.844205594994	1.002
17	175013	36.874205594994	1.002
17	175178	36.904205594994	1.002
17	175188	36.934205594994	1.002
17	175568	36.964205594994	1.002
17	175763	36.994205594994	1.002
17	175817	37.024205594994	1.002
17	175846	37.054205594994	1.002
17	176302	37.084205594994	1.002
17	176393	37.114205594994	1.002
17	176403	37.144205594994	1.002
17	176852	37.174205594994	1.002
17	177017	37.204205594994	1.002
17	177027	37.234205594994	1.002
17	177375	37.264205594994	1.002
17	177570	37.294205594994	1.002
17	177624	37.324205594994	1.002
17	177653	37.354205594994	1.002
17	178098	37.384205594994	1.002
17	178189	37.414205594994	1.002
17	178199	37.444205594994	1.002
17	178658	37.474205594994	1.002
17	178823	37.504205594994	1.002
17	178833	37.534205594994	1.002
17	179208	37.564205594994	1.002
17	179403	37.594205594994	1.002
17	179457	37.624205594994	1.002
17	179486	37.654205594994	1.002
17	179920	37.684205594994	1.002
17	180011	37.714205594994	1.002
17	180021	37.744205594994	1.002
17	180486	37.774205594994	1.002
17	180651	37.804205594994	1.002
17	180661	37.834205594994	1.002
17	181041	37.864205594994	1.002
17	181236	37.894205594994	1.002
17	181290	37.924205594994	1.002
17	181319	37.954205594994	1.002
17	181770	37.984205594994	1.002
17	181861	38.014205594994	1.002
17	181871	38.044205594994	1.002
17	182298	38.074205594994	1.002
17	182463	38.104205594994	1.002
17	182473	38.134205594994	1.002
17	182821	38.164205594994	1.002
17	183016	38.194205594994	1.002
17	183070	38.224205594994	1.002
17	183099	38.254205594994	1.002
17	183549	38.284205594994	1.002
17	183640	38.314205594994	1.002
17	183650	38.344205594994	1.002
17	184083	38.374205594994	1.002
17	184248	38.404205594994	1.002
17	184258	38.434205594994	1.002
17	184617	38.464205594994	1.002
17	184812	38.494205594994	1.002
17	184866	38.524205594994	1.002
17	184895	38.554205594994	1.002
17	185367	38.584205594994	1.002
17	185458	38.614205594994	1.002
17	185468	38.644205594994	1.002
17	185906	38.674205594994	1.002
17	186071	38.704205594994	1.002
17	186081	38.734205594994	1.002
17	186450	38.764205594994	1.002
17	186645	38.794205594994	1.002
17	186699	38.824205594994	1.002
17	186728	38.854205594994	1.002
17	187184	38.884205594994	1.002
17	187275	38.914205594994	1.002
17	187285	38.944205594994	1.002
17	187707	38.974205594994	1.002
17	187872	39.004205594994	1.002
17	187882	39.034205594994	1.002
17	188246	39.064205594994	1.002
17	188441	39.094205594994	1.002
17	188495	39.124205594994	1.002
17	188524	39.154205594994	1.002
17	188991	39.184205594994	1.002
17	189082	39.214205594994	1.002
17	189092	39.244205594994	1.002
17	189530	39.274205594994	1.002
17	189695	39.304205594994	1.002
17	189705	39.334205594994	1.002
17	190080	39.364205594994	1.002
17	190275	39.394205594994	1.002
17	190329	39.424205594994	1.002
17	190358	39.454205594994	1.002
17	190825	39.484205594994	1.002
17	190916	39.514205594994	1.002
17	190926	39.544205594994	1.002
17	191369	39.574205594994	1.002
17	191534	39.604205594994	1.002
17	191544	39.634205594994	1.002
17	191935	39.664205594994	1.002
17	192130	39.694205594994	1.002
17	192184	39.724205594994	1.002
17	192213	39.754205594994	1.002
17	192669	39.784205594994	1.002
17	192760	39.814205594994	1.002
17	192770	39.844205594994	1.002
17	193219	39.874205594994	1.002
17	193384	39.904205594994	1.002
17	193394	39.934205594994	1.002
17	193758	39.964205594994	1.002
17	193953	39.994205594994	1.002
17	194007	40.024205594994	1.002
17	194036	40.054205594994	1.002
17	194497	40.084205594994	1.002
17	194588	40.114205594994	1.002
17	194598	40.144205594994	1.002
17	195047	40.174205594994	1.002
17	195212	40.204205594994	1.002
17	195222	40.234205594994	1.002
17	195602	40.264205594994	1.002
17	195797	40.294205594994	1.002
17	195851	40.324205594994	1.002
17	195880	40.354205594994	1.002
17	196352	40.384205594994	1.002
17	196443	40.414205594994	1.002
17	196453	40.444205594994	1.002
17	196907	40.474205594994	1.002
17	197072	40.504205594994	1.002
17	197082	40.534205594994	1.002
17	197451	40.564205594994	1.002
17	197646	40.594205594994	1.002
17	197700	40.624205594994	1.002
17	197729	40.654205594994	1.002
17	198163	40.684205594994	1.002
17	198254	40.714205594994	1.002
17	198264	40.744205594994	1.002
17	198702	40.774205594994	1.002
17	198867	40.804205594994	1.002
17	198877	40.834205594994	1.002
17	199219	40.864205594994	1.002
17	199414	40.894205594994	1.002
17	199468	40.924205594994	1.002
17	199497	40.954205594994	1.002
17	199974	40.984205594994	1.002
17	200065	41.014205594994	1.002
17	200075	41.044205594994	1.002
17	200529	41.074205594994	1.002
17	200694	41.104205594994	1.002
17	200704	41.134205594994	1.002
17	201079	41.164205594994	1.002
17	201274	41.194205594994	1.002
17	201328	41.224205594994	1.002
17	201357	41.254205594994	1.002
17	201845	41.284205594994	1.002
17	201936	41.314205594994	1.002
17	201946	41.344205594994	1.002
17	202400	41.374205594994	1.002
17	202565	41.404205594994	1.002
17	202575	41.434205594994	1.002
17	202939	41.464205594994	1.002
17	203134	41.494205594994	1.002
17	203188	41.524205594994	1.002
17	203217	41.554205594994	1.002
17	203673	41.584205594994	1.002
17	203764	41.614205594994	1.002
17	203774	41.644205594994	1.002
17	204201	41.674205594994	1.002
17	204366	41.704205594994	1.002
17	204376	41.734205594994	1.002
17	204745	41.764205594994	1.002
17	204940	41.794205594994	1.002
17	204994	41.824205594994	1.002
17	205023	41.854205594994	1.002
17	205479	41.884205594994	1.002
17	205570	41.914205594994	1.002
17	205580	41.944205594994	1.002
17	206018	41.974205594994	1.002
17	206183	42.004205594994	1.002
17	206193	42.034205594994	1.002
17	206546	42.064205594994	1.002
17	206741	42.094205594994	1.002
17	206795	42.124205594994	1.002
17	206824	42.154205594994	1.002
17	207291	42.184205594994	1.002
17	207382	42.214205594994	1.002
17	207392	42.244205594994	1.002
17	207814	42.274205594994	1.002
17	207979	42.304205594994	1.002
17	207989	42.334205594994	1.002
17	208353	42.364205594994	1.002
17	208548	42.394205594994	1.002
17	208602	42.424205594994	1.002
17	208631	42.454205594994	1.002
17	209087	42.484205594994	1.002
17	209178	42.514205594994	1.002
17	209188	42.544205594994	1.002
17	209642	42.574205594994	1.002
17	209807	42.604205594994	1.002
17	209817	42.634205594994	1.002
17	210213	42.664205594994	1.002
17	210408	42.694205594994	1.002
17	210462	42.724205594994	1.002
17	210491	42.754205594994	1.002
17	210952	42.784205594994	1.002
17	211043	42.814205594994	1.002
17	211053	42.844205594994	1.002
17	211480	42.874205594994	1.002
17	211645	42.904205594994	1.002
17	211655	42.934205594994	1.002
17	212019	42.964205594994	1.002
17	212214	42.994205594994	1.002
17	212268	43.024205594994	1.002
17	212297	43.054205594994	1.002
17	212753	43.084205594994	1.002
17	212844	43.114205594994	1.002
17	212854	43.144205594994	1.002
17	213286	43.174205594994	1.002
17	213451	43.204205594994	1.002
17	213461	43.234205594994	1.002
17	213841	43.264205594994	1.002
17	214036	43.294205594994	1.002
17	214090	43.324205594994	1.002
17	214119	43.354205594994	1.002
17	214596	43.384205594994	1.002
17	214687	43.414205594994	1.002
17	214697	43.444205594994	1.002
17	215151	43.474205594994	1.002
17	215316	43.504205594994	1.002
17	215326	43.534205594994	1.002
17	215690	43.564205594994	1.002
17	215885	43.594205594994	1.002
17	215939	43.624205594994	1.002
17	215968	43.654205594994	1.002
17	216440	43.684205594994	1.002
17	216531	43.714205594994	1.002
17	216541	43.744205594994	1.002
17	216979	43.774205594994	1.002
17	217144	43.804205594994	1.002
17	217154	43.834205594994	1.002
17	217523	43.864205594994	1.002
17	217718	43.894205594994	1.002
17	217772	43.924205594994	1.002
17	217801	43.954205594994	1.002
17	218262	43.984205594994	1.002
17	218353	44.014205594994	1.002
17	218363	44.044205594994	1.002
17	218801	44.074205594994	1.002
17	218966	44.104205594994	1.002
17	218976	44.134205594994	1.002
17	219345	44.164205594994	1.002
17	219540	44.194205594994	1.002
17	219594	44.224205594994	1.002
17	219623	44.254205594994	1.002
17	220079	44.284205594994	1.002
17	220170	44.314205594994	1.002
17	220180	44.344205594994	1.002
17	220634	44.374205594994	1.002
17	220799	44.404205594994	1.002
17	220809	44.434205594994	1.002
17	221173	44.464205594994	1.002
17	221368	44.494205594994	1.002
17	221422	44.524205594994	1.002
17	221451	44.554205594994	1.002
17	221918	44.584205594994	1.002
17	222009	44.614205594994	1.002
17	222019	44.644205594994	1.002
17	222473	44.674205594994	1.002
17	222638	44.704205594994	1.002
17	222648	44.734205594994	1.002
17	223023	44.764205594994	1.002
17	223218	44.794205594994	1.002
17	223272	44.824205594994	1.002
17	223301	44.854205594994	1.002
17	223751	44.884205594994	1.002
17	223842	44.914205594994	1.002
17	223852	44.944205594994	1.002
17	224295	44.974205594994	1.002
17	224460	45.004205594994	1.002
17	224470	45.034205594994	1.002
17	224823	45.064205594994	1.002
17	225018	45.094205594994	1.002
17	225072	45.124205594994	1.002
17	225101	45.154205594994	1.002
17	225573	45.184205594994	1.002
17	225664	45.214205594994	1.002
17	225674	45.244205594994	1.002
17	226128	45.274205594994	1.002
17	226293	45.304205594994	1.002
17	226303	45.334205594994	1.002
17	226656	45.364205594994	1.002
17	226851	45.394205594994	1.002
17	226905	45.424205594994	1.002
17	226934	45.454205594994	1.002
17	227390	45.484205594994	1.002
17	227481	45.514205594994	1.002
17	227491	45.544205594994	1.002
17	227950	45.574205594994	1.002
17	228115	45.604205594994	1.002
17	228125	45.634205594994	1.002
17	228516	45.664205594994	1.002
17	228711	45.694205594994	1.002
17	228765	45.724205594994	1.002
17	228794	45.754205594994	1.002
17	229250	45.784205594994	1.002
17	229341	45.814205594994	1.002
17	229351	45.844205594994	1.002
17	229794	45.874205594994	1.002
17	229959	45.904205594994	1.002
17	229969	45.934205594994	1.002
17	230317	45.964205594994	1.002
17	230512	45.994205594994	1.002
17	230566	46.024205594994	1.002
17	230595	46.054205594994	1.002
17	231040	46.084205594994	1.002
17	231131	46.114205594994	1.002
17	231141	46.144205594994	1.002
17	231574	46.174205594994	1.002
17	231739	46.204205594994	1.002
17	231749	46.234205594994	1.002
17	232129	46.264205594994	1.002
17	232324	46.294205594994	1.002
17	232378	46.324205594994	1.002
17	232407	46.354205594994	1.002
17	232852	46.384205594994	1.002
17	232943	46.414205594994	1.002
17	232953	46.444205594994	1.002
17	233402	46.474205594994	1.002
17	233567	46.504205594994	1.002
17	233577	46.534205594994	1.002
17	233946	46.564205594994	1.002
17	234141	46.594205594994	1.002
17	234195	46.624205594994	1.002
17	234224	46.654205594994	1.002
17	234680	46.684205594994	1.002
17	234771	46.714205594994	1.002
17	234781	46.744205594994	1.002
17	235213	46.774205594994	1.002
17	235378	46.804205594994	1.002
17	235388	46.834205594994	1.002
17	235763	46.864205594994	1.002
17	235958	46.894205594994	1.002
17	236012	46.924205594994	1.002
17	236041	46.954205594994	1.002
17	236486	46.984205594994	1.002
17	236577	47.014205594994	1.002
17	236587	47.044205594994	1.002
17	237025	47.074205594994	1.002
17	237190	47.104205594994	1.002
17	237200	47.134205594994	1.002
17	237547	47.164205594994	1.002
17	237742	47.194205594994	1.002
17	237796	47.224205594994	1.002
17	237825	47.254205594994	1.002
17	238281	47.284205594994	1.002
17	238372	47.314205594994	1.002
17	238382	47.344205594994	1.002
17	238809	47.374205594994	1.002
17	238974	47.404205594994	1.002
17	238984	47.434205594994	1.002
17	239348	47.464205594994	1.002
17	239543	47.494205594994	1.002
17	239597	47.524205594994	1.002
17	239626	47.554205594994	1.002
17	240060	47.584205594994	1.002
17	240151	47.614205594994	1.002
17	240161	47.644205594994	1.002
17	240604	47.674205594994	1.002
17	240769	47.704205594994	1.002
17	240779	47.734205594994	1.002
17	241132	47.764205594994	1.002
17	241327	47.794205594994	1.002
17	241381	47.824205594994	1.002
17	241410	47.854205594994	1.002
17	241866	47.884205594994	1.002
17	241957	47.914205594994	1.002
17	241967	47.944205594994	1.002
17	242383	47.974205594994	1.002
17	242548	48.004205594994	1.002
17	242558	48.034205594994	1.002
17	242917	48.064205594994	1.002
17	243112	48.094205594994	1.002
17	243166	48.124205594994	1.002
17	243195	48.154205594994	1.002
17	243640	48.184205594994	1.002
17	243731	48.214205594994	1.002
17	243741	48.244205594994	1.002
17	244179	48.274205594994	1.002
17	244344	48.304205594994	1.002
17	244354	48.334205594994	1.002
17	244734	48.364205594994	1.002
17	244929	48.394205594994	1.002
17	244983	48.424205594994	1.002
17	245012	48.454205594994	1.002
17	245479	48.484205594994	1.002
17	245570	48.514205594994	1.002
17	245580	48.544205594994	1.002
17	246023	48.574205594994	1.002
17	246188	48.604205594994	1.002
17	246198	48.634205594994	1.002
17	246567	48.664205594994	1.002
17	246762	48.694205594994	1.002
17	246816	48.724205594994	1.002
17	246845	48.754205594994	1.002
17	247295	48.784205594994	1.002
17	247386	48.814205594994	1.002
17	247396	48.844205594994	1.002
17	247834	48.874205594994	1.002
17	247999	48.904205594994	1.002
17	248009	48.934205594994	1.002
17	248389	48.964205594994	1.002
17	248584	48.994205594994	1.002
17	248638	49.024205594994	1.002
17	248667	49.054205594994	1.002
17	249112	49.084205594994	1.002
17	249203	49.114205594994	1.002
17	249213	49.144205594994	1.002
17	249656	49.174205594994	1.002
17	249821	49.204205594994	1.002
17	249831	49.234205594994	1.002
17	250195	49.264205594994	1.002
17	250390	49.294205594994	1.002
17	250444	49.324205594994	1.002
17	250473	49.354205594994	1.002
17	250945	49.384205594994	1.002
17	251036	49.414205594994	1.002
17	251046	49.444205594994	1.002
17	251505	49.474205594994	1.002
17	251670	49.504205594994	1.002
17	251680	49.534205594994	1.002
17	252060	49.564205594994	1.002
17	252255	49.594205594994	1.002
17	252309	49.624205594994	1.002
17	252338	49.654205594994	1.002
17	252783	49.684205594994	1.002
17	252874	49.714205594994	1.002
17	252884	49.744205594994	1.002
17	253300	49.774205594994	1.002
17	253465	49.804205594994	1.002
17	253475	49.834205594994	1.002
17	253828	49.864205594994	1.002
17	254023	49.894205594994	1.002
17	254077	49.924205594994	1.002
17	254106	49.954205594994	1.002
17	254551	49.984205594994	1.002
17	254642	50.014205594994	1.002
17	254652	50.044205594994	1.002
17	255090	50.074205594994	1.002
17	255255	50.104205594994	1.002
17	255265	50.134205594994	1.002
17	255623	50.164205594994	1.002
17	255818	50.194205594994	1.002
17	255872	50.224205594994	1.002
17	255901	50.254205594994	1.002
17	256384	50.284205594994	1.002
17	256475	50.314205594994	1.002
17	256485	50.344205594994	1.002
17	256939	50.374205594994	1.002
17	257104	50.404205594994	1.002
17	257114	50.434205594994	1.002
17	257494	50.464205594994	1.002
17	257689	50.494205594994	1.002
17	257743	50.524205594994	1.002
17	257772	50.554205594994	1.002
17	258244	50.584205594994	1.002
17	258335	50.614205594994	1.002
17	258345	50.644205594994	1.002
17	258794	50.674205594994	1.002
17	258959	50.704205594994	1.002
17	258969	50.734205594994	1.002
17	259333	50.764205594994	1.002
17	259528	50.794205594994	1.002
17	259582	50.824205594994	1.002
17	259611	50.854205594994	1.002
17	260067	50.884205594994	1.002
17	260158	50.914205594994	1.002
17	260168	50.944205594994	1.002
17	260633	50.974205594994	1.002
17	260798	51.004205594994	1.002
17	260808	51.034205594994	1.002
17	261172	51.064205594994	1.002
17	261367	51.094205594994	1.002
17	261421	51.124205594994	1.002
17	261450	51.154205594994	1.002
17	261906	51.184205594994	1.002
17	261997	51.214205594994	1.002
17	262007	51.244205594994	1.002
17	262456	51.274205594994	1.002
17	262621	51.304205594994	1.002
17	262631	51.334205594994	1.002
17	262995	51.364205594994	1.002
17	263190	51.394205594994	1.002
17	263244	51.424205594994	1.002
17	263273	51.454205594994	1.002
17	263729	51.484205594994	1.002
17	263820	51.514205594994	1.002
17	263830	51.544205594994	1.002
17	264257	51.574205594994	1.002
17	264422	51.604205594994	1.002
17	264432	51.634205594994	1.002
17	264796	51.664205594994	1.002
17	264991	51.694205594994	1.002
17	265045	51.724205594994	1.002
17	265074	51.754205594994	1.002
17	265530	51.784205594994	1.002
17	265621	51.814205594994	1.002
17	265631	51.844205594994	1.002
17	266096	51.874205594994	1.002
17	266261	51.904205594994	1.002
17	266271	51.934205594994	1.002
17	266635	51.964205594994	1.002
17	266830	51.994205594994	1.002
17	266884	52.024205594994	1.002
17	266913	52.054205594994	1.002
17	267385	52.084205594994	1.002
17	267476	52.114205594994	1.002
17	267486	52.144205594994	1.002
17	267929	52.174205594994	1.002
17	268094	52.204205594994	1.002
17	268104	52.234205594994	1.002
17	268495	52.264205594994	1.002
17	268690	52.294205594994	1.002
17	268744	52.324205594994	1.002
17	268773	52.354205594994	1.002
17	269234	52.384205594994	1.002
17	269325	52.414205594994	1.002
17	269335	52.444205594994	1.002
17	269789	52.474205594994	1.002
17	269954	52.504205594994	1.002
17	269964	52.534205594994	1.002
17	270328	52.564205594994	1.002
17	270523	52.594205594994	1.002
17	270577	52.624205594994	1.002
17	270606	52.654205594994	1.002
17	271078	52.684205594994	1.002
17	271169	52.714205594994	1.002
17	271179	52.744205594994	1.002
17	271628	52.774205594994	1.002
17	271793	52.804205594994	1.002
17	271803	52.834205594994	1.002
17	272178	52.864205594994	1.002
17	272373	52.894205594994	1.002
17	272427	52.924205594994	1.002
17	272456	52.954205594994	1.002
17	272907	52.984205594994	1.002
17	272998	53.014205594994	1.002
17	273008	53.044205594994	1.002
17	273462	53.074205594994	1.002
17	273627	53.104205594994	1.002
17	273637	53.134205594994	1.002
17	273979	53.164205594994	1.002
17	274174	53.194205594994	1.002
17	274228	53.224205594994	1.002
17	274257	53.254205594994	1.002
17	274718	53.284205594994	1.002
17	274809	53.314205594994	1.002
17	274819	53.344205594994	1.002
17	275284	53.374205594994	1.002
17	275449	53.404205594994	1.002
17	275459	53.434205594994	1.002
17	275834	53.464205594994	1.002
17	276029	53.494205594994	1.002
17	276083	53.524205594994	1.002
17	276112	53.554205594994	1.002
17	276568	53.584205594994	1.002
17	276659	53.614205594994	1.002
17	276669	53.644205594994	1.002
17	277123	53.674205594994	1.002
17	277288	53.704205594994	1.002
17	277298	53.734205594994	1.002
17	277662	53.764205594994	1.002
17	277857	53.794205594994	1.002
17	277911	53.824205594994	1.002
17	277940	53.854205594994	1.002
17	278396	53.884205594994	1.002
17	278487	53.914205594994	1.002
17	278497	53.944205594994	1.002
17	278951	53.974205594994	1.002
17	279116	54.004205594994	1.002
17	279126	54.034205594994	1.002
17	279490	54.064205594994	1.002
17	279685	54.094205594994	1.002
17	279739	54.124205594994	1.002
17	279768	54.154205594994	1.002
17	280240	54.184205594994	1.002
17	280331	54.214205594994	1.002
17	280341	54.244205594994	1.002
17	280779	54.274205594994	1.002
17	280944	54.304205594994	1.002
17	280954	54.334205594994	1.002
17	281312	54.364205594994	1.002
17	281507	54.394205594994	1.002
17	281561	54.424205594994	1.002
17	281590	54.454205594994	1.002
17	282046	54.484205594994	1.002
17	282137	54.514205594994	1.002
17	282147	54.544205594994	1.002
17	282590	54.574205594994	1.002
17	282755	54.604205594994	1.002
17	282765	54.634205594994	1.002
17	283134	54.664205594994	1.002
17	283329	54.694205594994	1.002
17	283383	54.724205594994	1.002
17	283412	54.754205594994	1.002
17	283868	54.784205594994	1.002
17	283959	54.814205594994	1.002
17	283969	54.844205594994	1.002
17	284407	54.874205594994	1.002
17	284572	54.904205594994	1.002
17	284582	54.934205594994	1.002
17	284962	54.964205594994	1.002
17	285157	54.994205594994	1.002
17	285211	55.024205594994	1.002
17	285240	55.054205594994	1.002
17	285712	55.084205594994	1.002
17	285803	55.114205594994	1.002
17	285813	55.144205594994	1.002
17	286256	55.174205594994	1.002
17	286421	55.204205594994	1.002
17	286431	55.234205594994	1.002
17	286800	55.264205594994	1.002
17	286995	55.294205594994	1.002
17	287049	55.324205594994	1.002
17	287078	55.354205594994	1.002
17	287539	55.384205594994	1.002
17	287630	55.414205594994	1.002
17	287640	55.444205594994	1.002
17	288094	55.474205594994	1.002
17	288259	55.504205594994	1.002
17	288269	55.534205594994	1.002
17	288628	55.564205594994	1.002
17	288823	55.594205594994	1.002
17	288877	55.624205594994	1.002
17	288906	55.654205594994	1.002
17	289362	55.684205594994	1.002
17	289453	55.714205594994	1.002
17	289463	55.744205594994	1.002
17	289901	55.774205594994	1.002
17	290066	55.804205594994	1.002
17	290076	55.834205594994	1.002
17	290440	55.864205594994	1.002
17	290635	55.894205594994	1.002
17	290689	55.924205594994	1.002
17	290718	55.954205594994	1.002
17	291190	55.984205594994	1.002
17	291281	56.014205594994	1.002
17	291291	56.044205594994	1.002
17	291729	56.074205594994	1.002
17	291894	56.104205594994	1.002
17	291904	56.134205594994	1.002
17	292268	56.164205594994	1.002
17	292463	56.194205594994	1.002
17	292517	56.224205594994	1.002
17	292546	56.254205594994	1.002
17	292986	56.284205594994	1.002
17	293077	56.314205594994	1.002
17	293087	56.344205594994	1.002
17	293536	56.374205594994	1.002
17	293701	56.404205594994	1.002
17	293711	56.434205594994	1.002
17	294102	56.464205594994	1.002
17	294297	56.494205594994	1.002
17	294351	56.524205594994	1.002
17	294380	56.554205594994	1.002
17	294825	56.584205594994	1.002
17	294916	56.614205594994	1.002
17	294926	56.644205594994	1.002
17	295364	56.674205594994	1.002
17	295529	56.704205594994	1.002
17	295539	56.734205594994	1.002
17	295924	56.764205594994	1.002
17	296119	56.794205594994	1.002
17	296173	56.824205594994	1.002
17	296202	56.854205594994	1.002
17	296669	56.884205594994	1.002
17	296760	56.914205594994	1.002
17	296770	56.944205594994	1.002
17	297224	56.974205594994	1.002
17	297389	57.004205594994	1.002
17	297399	57.034205594994	1.002
17	297758	57.064205594994	1.002
17	297953	57.094205594994	1.002
17	298007	57.124205594994	1.002
17	298036	57.154205594994	1.002
17	298502	57.184205594994	1.002
17	298593	57.214205594994	1.002
17	298603	57.244205594994	1.002
17	299046	57.274205594994	1.002
17	299211	57.304205594994	1.002
17	299221	57.334205594994	1.002
17	299596	57.364205594994	1.002
17	299791	57.394205594994	1.002
17	299845	57.424205594994	1.002
17	299874	57.454205594994	1.002
17	300335	57.484205594994	1.002
17	300426	57.514205594994	1.002
17	300436	57.544205594994	1.002
17	300874	57.574205594994	1.002
17	301039	57.604205594994	1.002
17	301049	57.634205594994	1.002
17	301413	57.664205594994	1.002
17	301608	57.694205594994	1.002
17	301662	57.724205594994	1.002
17	301691	57.754205594994	1.002
17	302125	57.784205594994	1.002
17	302216	57.814205594994	1.002
17	302226	57.844205594994	1.002
17	302664	57.874205594994	1.002
17	302829	57.904205594994	1.002
17	302839	57.934205594994	1.002
17	303224	57.964205594994	1.002
17	303419	57.994205594994	1.002
17	303473	58.024205594994	1.002
17	303502	58.054205594994	1.002
17	303969	58.084205594994	1.002
17	304060	58.114205594994	1.002
17	304070	58.144205594994	1.002
17	304524	58.174205594994	1.002
17	304689	58.204205594994	1.002
17	304699	58.234205594994	1.002
17	305090	58.264205594994	1.002
17	305285	58.294205594994	1.002
17	305339	58.324205594994	1.002
17	305368	58.354205594994	1.002
17	305840	58.384205594994	1.002
17	305931	58.414205594994	1.002
17	305941	58.444205594994	1.002
17	306384	58.474205594994	1.002
17	306549	58.504205594994	1.002
17	306559	58.534205594994	1.002
17	306917	58.564205594994	1.002
17	307112	58.594205594994	1.002
17	307166	58.624205594994	1.002
17	307195	58.654205594994	1.002
17	307651	58.684205594994	1.002
17	307742	58.714205594994	1.002
17	307752	58.744205594994	1.002
17	308190	58.774205594994	1.002
17	308355	58.804205594994	1.002
17	308365	58.834205594994	1.002
17	308713	58.864205594994	1.002
17	308908	58.894205594994	1.002
17	308962	58.924205594994	1.002
17	308991	58.954205594994	1.002
17	309458	58.984205594994	1.002
17	309549	59.014205594994	1.002
17	309559	59.044205594994	1.002
17	310013	59.074205594994	1.002
17	310178	59.104205594994	1.002
17	310188	59.134205594994	1.002
17	310546	59.164205594994	1.002
17	310741	59.194205594994	1.002
17	310795	59.224205594994	1.002
17	310824	59.254205594994	1.002
17	311296	59.284205594994	1.002
17	311387	59.314205594994	1.002
17	311397	59.344205594994	1.002
17	311851	59.374205594994	1.002
17	312016	59.404205594994	1.002
17	312026	59.434205594994	1.002
17	312390	59.464205594994	1.002
17	312585	59.494205594994	1.002
17	312639	59.524205594994	1.002
17	312668	59.554205594994	1.002
17	313113	59.584205594994	1.002
17	313204	59.614205594994	1.002
17	313214	59.644205594994	1.002
17	313652	59.674205594994	1.002
17	313817	59.704205594994	1.002
17	313827	59.734205594994	1.002
17	314207	59.764205594994	1.002
17	314402	59.794205594994	1.002
17	314456	59.824205594994	1.002
17	314485	59.854205594994	1.002
17	314930	59.884205594994	1.002
17	315021	59.914205594994	1.002
17	315031	59.944205594994	1.002
17	315463	59.974205594994	1.002
17	315628	60.004205594994	1.002
17	315638	60.034205594994	1.002
17	316018	60.064205594994	1.002
17	316213	60.094205594994	1.002
17	316267	60.124205594994	1.002
17	316296	60.154205594994	1.002
17	316752	60.184205594994	1.002
17	316843	60.214205594994	1.002
17	316853	60.244205594994	1.002
17	317291	60.274205594994	1.002
17	317456	60.304205594994	1.002
17	317466	60.334205594994	1.002
17	317830	60.364205594994	1.002
17	318025	60.394205594994	1.002
17	318079	60.424205594994	1.002
17	318108	60.454205594994	1.002
17	318591	60.484205594994	1.002
17	318682	60.514205594994	1.002
17	318692	60.544205594994	1.002
17	319146	60.574205594994	1.002
17	319311	60.604205594994	1.002
17	319321	60.634205594994	1.002
17	319690	60.664205594994	1.002
17	319885	60.694205594994	1.002
17	319939	60.724205594994	1.002
17	319968	60.754205594994	1.002
17	320424	60.784205594994	1.002
17	320515	60.814205594994	1.002
17	320525	60.844205594994	1.002
17	320952	60.874205594994	1.002
17	321117	60.904205594994	1.002
17	321127	60.934205594994	1.002
17	321480	60.964205594994	1.002
17	321675	60.994205594994	1.002
17	321729	61.024205594994	1.002
17	321758	61.054205594994	1.002
17	322225	61.084205594994	1.002
17	322316	61.114205594994	1.002
17	322326	61.144205594994	1.002
17	322780	61.174205594994	1.002
17	322945	61.204205594994	1.002
17	322955	61.234205594994	1.002
17	323335	61.264205594994	1.002
17	323530	61.294205594994	1.002
17	323584	61.324205594994	1.002
17	323613	61.354205594994	1.002
17	324058	61.384205594994	1.002
17	324149	61.414205594994	1.002
17	324159	61.444205594994	1.002
17	324608	61.474205594994	1.002
17	324773	61.504205594994	1.002
17	324783	61.534205594994	1.002
17	325163	61.564205594994	1.002
17	325358	61.594205594994	1.002
16	27	0.574205594994	1
16	45	0.604205594994	2
16	47	0.634205594994	3
16	77	0.664205594994	4
16	92	0.694205594994	5
16	110	0.724205594994	6
16	119	0.754205594994	7
16	142	0.784205594994	8
16	160	0.814205594994	9
16	162	0.844205594994	10
16	192	0.874205594994	11
16	210	0.904205594994	12
16	212	0.934205594994	13
16	242	0.964205594994	14
16	257	0.994205594994	15
16	275	1.024205594994	16
16	284	1.054205594994	17
16	307	1.084205594994	18
16	325	1.114205594994	19
16	327	1.144205594994	20
16	357	1.174205594994	21
16	375	1.204205594994	22
16	377	1.234205594994	23
16	407	1.264205594994	24
16	422	1.294205594994	25
16	440	1.324205594994	26
16	449	1.354205594994	27
16	472	1.384205594994	28
16	490	1.414205594994	29
16	492	1.444205594994	30
16	522	1.474205594994	31
16	540	1.504205594994	32
16	542	1.534205594994	33
16	572	1.564205594994	34
16	587	1.594205594994	35
16	605	1.624205594994	36
16	614	1.654205594994	37
16	637	1.684205594994	38
16	655	1.714205594994	39
16	657	1.744205594994	40
16	687	1.774205594994	41
16	705	1.804205594994	42
16	707	1.834205594994	43
16	737	1.864205594994	44
16	752	1.894205594994	45
16	770	1.924205594994	46
16	779	1.954205594994	47
16	802	1.984205594994	48
16	820	2.014205594994	49
16	822	2.044205594994	50
16	852	2.074205594994	51
16	870	2.104205594994	52
16	872	2.134205594994	53
16	902	2.164205594994	54
16	917	2.194205594994	55
16	935	2.224205594994	56
16	944	2.254205594994	57
16	967	2.284205594994	58
16	985	2.314205594994	59
16	987	2.344205594994	60
16	1017	2.374205594994	61
16	1035	2.404205594994	62
16	1037	2.434205594994	63
16	1067	2.464205594994	64
16	1082	2.494205594994	65
16	1100	2.524205594994	66
16	1109	2.554205594994	67
16	1132	2.584205594994	68
16	1150	2.614205594994	69
16	1152	2.644205594994	70
16	1182	2.674205594994	71
16	1200	2.704205594994	72
16	1202	2.734205594994	73
16	1232	2.764205594994	74
16	1247	2.794205594994	75
16	1265	2.824205594994	76
16	1274	2.854205594994	77
16	1297	2.884205594994	78
16	1315	2.914205594994	79
16	1317	2.944205594994	80
16	1347	2.974205594994	81
16	1365	3.004205594994	82
16	1367	3.034205594994	83
16	1397	3.064205594994	84
16	1412	3.094205594994	85
16	1430	3.124205594994	86
16	1435	3.154205594994	87
16	1475	3.184205594994	88
16	1500	3.214205594994	89
16	1502	3.244205594994	90
16	1545	3.274205594994	91
16	1570	3.304205594994	92
16	1572	3.334205594994	93
16	1615	3.364205594994	94
16	1636	3.394205594994	95
16	1661	3.424205594994	96
16	1673	3.454205594994	97
16	1706	3.484205594994	98
16	1731	3.514205594994	99
16	1733	3.544205594994	100
16	1776	3.574205594994	101
16	1801	3.604205594994	102
16	1803	3.634205594994	103
16	1846	3.664205594994	104
16	1867	3.694205594994	105
16	1892	3.724205594994	106
16	1904	3.754205594994	107
16	1937	3.784205594994	108
16	1962	3.814205594994	109
16	1964	3.844205594994	110
16	2007	3.874205594994	111
16	2032	3.904205594994	112
16	2034	3.934205594994	113
16	2098	3.964205594994	115
16	2140	3.994205594994	117
16	2167	4.024205594994	119
16	2181	4.054205594994	121
16	2266	4.084205594994	123
16	2312	4.114205594994	125
16	2316	4.144205594994	127
16	2399	4.174205594994	129
16	2445	4.204205594994	131
16	2449	4.234205594994	133
16	2525	4.264205594994	135
16	2567	4.294205594994	137
16	2594	4.324205594994	139
16	2608	4.354205594994	141
16	2700	4.384205594994	143
16	2746	4.414205594994	145
16	2750	4.444205594994	147
16	2833	4.474205594994	149
16	2879	4.504205594994	151
16	2883	4.534205594994	153
16	2966	4.564205594994	155
16	3008	4.594205594994	157
16	3035	4.624205594994	159
16	3049	4.654205594994	161
16	3141	4.684205594994	163
16	3187	4.714205594994	165
16	3191	4.744205594994	167
16	3274	4.774205594994	169
16	3320	4.804205594994	171
16	3324	4.834205594994	173
16	3400	4.864205594994	175
16	3442	4.894205594994	177
16	3469	4.924205594994	179
16	3483	4.954205594994	181
16	3575	4.984205594994	183
16	3621	5.014205594994	185
16	3625	5.044205594994	187
16	3708	5.074205594994	189
16	3754	5.104205594994	191
16	3758	5.134205594994	193
16	3834	5.164205594994	195
16	3876	5.194205594994	197
16	3903	5.224205594994	199
16	3917	5.254205594994	201
16	4009	5.284205594994	203
16	4055	5.314205594994	205
16	4059	5.344205594994	207
16	4142	5.374205594994	209
16	4188	5.404205594994	211
16	4192	5.434205594994	213
16	4275	5.464205594994	215
16	4317	5.494205594994	217
16	4344	5.524205594994	219
16	4358	5.554205594994	221
16	4450	5.584205594994	223
16	4496	5.614205594994	225
16	4500	5.644205594994	227
16	4583	5.674205594994	229
16	4629	5.704205594994	231
16	4633	5.734205594994	233
16	4709	5.764205594994	235
16	4751	5.794205594994	237
16	4778	5.824205594994	239
16	4792	5.854205594994	241
16	4884	5.884205594994	243
16	4930	5.914205594994	245
16	4934	5.944205594994	247
16	5017	5.974205594994	249
16	5063	6.004205594994	251
16	5067	6.034205594994	253
16	5143	6.064205594994	255
16	5185	6.094205594994	257
16	5212	6.124205594994	259
16	5229	6.154205594994	261
16	5339	6.184205594994	263
16	5398	6.214205594994	265
16	5402	6.244205594994	267
16	5510	6.274205594994	269
16	5569	6.304205594994	271
16	5573	6.334205594994	273
16	5671	6.364205594994	275
16	5725	6.394205594994	277
16	5759	6.424205594994	279
16	5776	6.454205594994	281
16	5886	6.484205594994	283
16	5945	6.514205594994	285
16	5949	6.544205594994	287
16	6074	6.574205594994	290
16	6160	6.604205594994	293
16	6166	6.634205594994	296
16	6316	6.664205594994	299
16	6397	6.694205594994	302
16	6433	6.724205594994	305
16	6452	6.754205594994	308
16	6639	6.784205594994	311
16	6700	6.814205594994	314
16	6706	6.844205594994	317
16	6881	6.874205594994	320
16	6967	6.904205594994	323
16	6973	6.934205594994	326
16	7123	6.964205594994	329
16	7204	6.994205594994	332
16	7240	7.024205594994	335
16	7259	7.054205594994	338
16	7446	7.084205594994	341
16	7507	7.114205594994	344
16	7513	7.144205594994	347
16	7688	7.174205594994	350
16	7774	7.204205594994	353
16	7780	7.234205594994	356
16	7930	7.264205594994	359
16	8011	7.294205594994	362
16	8047	7.324205594994	365
16	8066	7.354205594994	368
16	8253	7.384205594994	371
16	8314	7.414205594994	374
16	8320	7.444205594994	377
16	8488	7.474205594994	380
16	8574	7.504205594994	383
16	8580	7.534205594994	386
16	8720	7.564205594994	389
16	8801	7.594205594994	392
16	8837	7.624205594994	395
16	8856	7.654205594994	398
16	9053	7.684205594994	401
16	9114	7.714205594994	404
16	9120	7.744205594994	407
16	9285	7.774205594994	410
16	9371	7.804205594994	413
16	9377	7.834205594994	416
16	9520	7.864205594994	419
16	9601	7.894205594994	422
16	9637	7.924205594994	425
16	9656	7.954205594994	428
16	9853	7.984205594994	431
16	9914	8.014205594994	434
16	9920	8.044205594994	437
16	10085	8.074205594994	440
16	10171	8.104205594994	443
16	10177	8.134205594994	446
16	10327	8.164205594994	449
16	10408	8.194205594994	452
16	10444	8.224205594994	455
16	10463	8.254205594994	458
16	10650	8.284205594994	461
16	10711	8.314205594994	464
16	10717	8.344205594994	467
16	10882	8.374205594994	470
16	10968	8.404205594994	473
16	10974	8.434205594994	476
16	11124	8.464205594994	479
16	11205	8.494205594994	482
16	11241	8.524205594994	485
16	11260	8.554205594994	488
16	11440	8.584205594994	491
16	11501	8.614205594994	494
16	11507	8.644205594994	497
16	11682	8.674205594994	500
16	11768	8.704205594994	503
16	11774	8.734205594994	506
16	11907	8.764205594994	509
16	11988	8.794205594994	512
16	12024	8.824205594994	515
16	12043	8.854205594994	518
16	12230	8.884205594994	521
16	12291	8.914205594994	524
16	12297	8.944205594994	527
16	12472	8.974205594994	530
16	12558	9.004205594994	533
16	12564	9.034205594994	536
16	12714	9.064205594994	539
16	12795	9.094205594994	542
16	12831	9.124205594994	545
16	12853	9.154205594994	548
16	13084	9.184205594994	551
16	13158	9.214205594994	554
16	13164	9.244205594994	557
16	13357	9.274205594994	560
16	13462	9.304205594994	563
16	13468	9.334205594994	566
16	13653	9.364205594994	569
16	13752	9.394205594994	572
16	13795	9.424205594994	575
16	13817	9.454205594994	578
16	14048	9.484205594994	581
16	14122	9.514205594994	584
16	14128	9.544205594994	587
16	14343	9.574205594994	590
16	14448	9.604205594994	593
16	14454	9.634205594994	596
16	14646	9.664205594994	600
16	14778	9.694205594994	604
16	14823	9.724205594994	608
16	14847	9.754205594994	612
16	15159	9.784205594994	616
16	15235	9.814205594994	620
16	15243	9.844205594994	624
16	15540	9.874205594994	628
16	15678	9.904205594994	632
16	15686	9.934205594994	636
16	15912	9.964205594994	640
16	16044	9.994205594994	644
16	16089	10.024205594994	648
16	16113	10.054205594994	652
16	16416	10.084205594994	656
16	16492	10.114205594994	660
16	16500	10.144205594994	664
16	16810	10.174205594994	668
16	16948	10.204205594994	672
16	16956	10.234205594994	676
16	17195	10.264205594994	680
16	17327	10.294205594994	684
16	17372	10.324205594994	688
16	17396	10.354205594994	692
16	17721	10.384205594994	696
16	17797	10.414205594994	700
16	17805	10.444205594994	704
16	18102	10.474205594994	708
16	18240	10.504205594994	712
16	18248	10.534205594994	716
16	18483	10.564205594994	720
16	18615	10.594205594994	724
16	18660	10.624205594994	728
16	18684	10.654205594994	732
16	18987	10.684205594994	736
16	19063	10.714205594994	740
16	19071	10.744205594994	744
16	19368	10.774205594994	748
16	19506	10.804205594994	752
16	19514	10.834205594994	756
16	19731	10.864205594994	760
16	19863	10.894205594994	764
16	19908	10.924205594994	768
16	19932	10.954205594994	772
16	20244	10.984205594994	776
16	20320	11.014205594994	780
16	20328	11.044205594994	784
16	20616	11.074205594994	788
16	20754	11.104205594994	792
16	20762	11.134205594994	796
16	20979	11.164205594994	800
16	21111	11.194205594994	804
16	21156	11.224205594994	808
16	21180	11.254205594994	812
16	21483	11.284205594994	816
16	21559	11.314205594994	820
16	21567	11.344205594994	824
16	21864	11.374205594994	828
16	22002	11.404205594994	832
16	22010	11.434205594994	836
16	22236	11.464205594994	840
16	22368	11.494205594994	844
16	22413	11.524205594994	848
16	22437	11.554205594994	852
16	22744	11.584205594994	856
16	22820	11.614205594994	860
16	22828	11.644205594994	864
16	23112	11.674205594994	868
[...]
14	223263	44.800249398352	0.002
14	223286	44.850249398352	0.001
14	223837	44.900249398352	0.002
14	223859	44.950249398352	0.001
14	224458	45.000249398352	0.002
14	224481	45.050249398352	0.001
14	225063	45.100249398352	0.002
14	225086	45.150249398352	0.001
14	225659	45.200249398352	0.002
14	225681	45.250249398352	0.001
14	226291	45.300249398352	0.002
14	226314	45.350249398352	0.001
14	226896	45.400249398352	0.002
14	226919	45.450249398352	0.001
14	227476	45.500249398352	0.002
14	227498	45.550249398352	0.001
14	228113	45.600249398352	0.002
14	228136	45.650249398352	0.001
14	228756	45.700249398352	0.002
14	228779	45.750249398352	0.001
14	229336	45.800249398352	0.002
14	229358	45.850249398352	0.001
14	229957	45.900249398352	0.002
14	229980	45.950249398352	0.001
14	230557	46.000249398352	0.002
14	230580	46.050249398352	0.001
14	231126	46.100249398352	0.002
14	231148	46.150249398352	0.001
14	231737	46.200249398352	0.002
14	231760	46.250249398352	0.001
14	232369	46.300249398352	0.002
14	232392	46.350249398352	0.001
14	232938	46.400249398352	0.002
14	232960	46.450249398352	0.001
14	233565	46.500249398352	0.002
14	233588	46.550249398352	0.001
14	234186	46.600249398352	0.002
14	234209	46.650249398352	0.001
14	234766	46.700249398352	0.002
14	234788	46.750249398352	0.001
14	235376	46.800249398352	0.002
14	235399	46.850249398352	0.001
14	236003	46.900249398352	0.002
14	236026	46.950249398352	0.001
14	236572	47.000249398352	0.002
14	236594	47.050249398352	0.001
14	237188	47.100249398352	0.002
14	237211	47.150249398352	0.001
14	237787	47.200249398352	0.002
14	237810	47.250249398352	0.001
14	238367	47.300249398352	0.002
14	238389	47.350249398352	0.001
14	238972	47.400249398352	0.002
14	238995	47.450249398352	0.001
14	239588	47.500249398352	0.002
14	239611	47.550249398352	0.001
14	240146	47.600249398352	0.002
14	240168	47.650249398352	0.001
14	240767	47.700249398352	0.002
14	240790	47.750249398352	0.001
14	241372	47.800249398352	0.002
14	241395	47.850249398352	0.001
14	241952	47.900249398352	0.002
14	241974	47.950249398352	0.001
14	242546	48.000249398352	0.002
14	242569	48.050249398352	0.001
14	243157	48.100249398352	0.002
14	243180	48.150249398352	0.001
14	243726	48.200249398352	0.002
14	243748	48.250249398352	0.001
14	244342	48.300249398352	0.002
14	244365	48.350249398352	0.001
14	244974	48.400249398352	0.002
14	244997	48.450249398352	0.001
14	245565	48.500249398352	0.002
14	245587	48.550249398352	0.001
14	246186	48.600249398352	0.002
14	246209	48.650249398352	0.001
14	246807	48.700249398352	0.002
14	246830	48.750249398352	0.001
14	247381	48.800249398352	0.002
14	247403	48.850249398352	0.001
14	247997	48.900249398352	0.002
14	248020	48.950249398352	0.001
14	248629	49.000249398352	0.002
14	248652	49.050249398352	0.001
14	249198	49.100249398352	0.002
14	249220	49.150249398352	0.001
14	249819	49.200249398352	0.002
14	249842	49.250249398352	0.001
14	250435	49.300249398352	0.002
14	250458	49.350249398352	0.001
14	251031	49.400249398352	0.002
14	251053	49.450249398352	0.001
14	251668	49.500249398352	0.002
14	251691	49.550249398352	0.001
14	252300	49.600249398352	0.002
14	252323	49.650249398352	0.001
14	252869	49.700249398352	0.002
14	252891	49.750249398352	0.001
14	253463	49.800249398352	0.002
14	253486	49.850249398352	0.001
14	254068	49.900249398352	0.002
14	254091	49.950249398352	0.001
14	254637	50.000249398352	0.002
14	254659	50.050249398352	0.001
14	255253	50.100249398352	0.002
14	255276	50.150249398352	0.001
14	255863	50.200249398352	0.002
14	255886	50.250249398352	0.001
14	256470	50.300249398352	0.002
14	256492	50.350249398352	0.001
14	257102	50.400249398352	0.002
14	257125	50.450249398352	0.001
14	257734	50.500249398352	0.002
14	257757	50.550249398352	0.001
14	258330	50.600249398352	0.002
14	258352	50.650249398352	0.001
14	258957	50.700249398352	0.002
14	258980	50.750249398352	0.001
14	259573	50.800249398352	0.002
14	259596	50.850249398352	0.001
14	260153	50.900249398352	0.002
14	260175	50.950249398352	0.001
14	260796	51.000249398352	0.002
14	260819	51.050249398352	0.001
14	261412	51.100249398352	0.002
14	261435	51.150249398352	0.001
14	261992	51.200249398352	0.002
14	262014	51.250249398352	0.001
14	262619	51.300249398352	0.002
14	262642	51.350249398352	0.001
14	263235	51.400249398352	0.002
14	263258	51.450249398352	0.001
14	263815	51.500249398352	0.002
14	263837	51.550249398352	0.001
14	264420	51.600249398352	0.002
14	264443	51.650249398352	0.001
14	265036	51.700249398352	0.002
14	265059	51.750249398352	0.001
14	265616	51.800249398352	0.002
14	265638	51.850249398352	0.001
14	266259	51.900249398352	0.002
14	266282	51.950249398352	0.001
14	266875	52.000249398352	0.002
14	266898	52.050249398352	0.001
14	267471	52.100249398352	0.002
14	267493	52.150249398352	0.001
14	268092	52.200249398352	0.002
14	268115	52.250249398352	0.001
14	268735	52.300249398352	0.002
14	268758	52.350249398352	0.001
14	269320	52.400249398352	0.002
14	269342	52.450249398352	0.001
14	269952	52.500249398352	0.002
14	269975	52.550249398352	0.001
14	270568	52.600249398352	0.002
14	270591	52.650249398352	0.001
14	271164	52.700249398352	0.002
14	271186	52.750249398352	0.001
14	271791	52.800249398352	0.002
14	271814	52.850249398352	0.001
14	272418	52.900249398352	0.002
14	272441	52.950249398352	0.001
14	272993	53.000249398352	0.002
14	273015	53.050249398352	0.001
14	273625	53.100249398352	0.002
14	273648	53.150249398352	0.001
14	274219	53.200249398352	0.002
14	274242	53.250249398352	0.001
14	274804	53.300249398352	0.002
14	274826	53.350249398352	0.001
14	275447	53.400249398352	0.002
14	275470	53.450249398352	0.001
14	276074	53.500249398352	0.002
14	276097	53.550249398352	0.001
14	276654	53.600249398352	0.002
14	276676	53.650249398352	0.001
14	277286	53.700249398352	0.002
14	277309	53.750249398352	0.001
14	277902	53.800249398352	0.002
14	277925	53.850249398352	0.001
14	278482	53.900249398352	0.002
14	278504	53.950249398352	0.001
14	279114	54.000249398352	0.002
14	279137	54.050249398352	0.001
14	279730	54.100249398352	0.002
14	279753	54.150249398352	0.001
14	280326	54.200249398352	0.002
14	280348	54.250249398352	0.001
14	280942	54.300249398352	0.002
14	280965	54.350249398352	0.001
14	281552	54.400249398352	0.002
14	281575	54.450249398352	0.001
14	282132	54.500249398352	0.002
14	282154	54.550249398352	0.001
14	282753	54.600249398352	0.002
14	282776	54.650249398352	0.001
14	283374	54.700249398352	0.002
14	283397	54.750249398352	0.001
14	283954	54.800249398352	0.002
14	283976	54.850249398352	0.001
14	284570	54.900249398352	0.002
14	284593	54.950249398352	0.001
14	285202	55.000249398352	0.002
14	285225	55.050249398352	0.001
14	285798	55.100249398352	0.002
14	285820	55.150249398352	0.001
14	286419	55.200249398352	0.002
14	286442	55.250249398352	0.001
14	287040	55.300249398352	0.002
14	287063	55.350249398352	0.001
14	287625	55.400249398352	0.002
14	287647	55.450249398352	0.001
14	288257	55.500249398352	0.002
14	288280	55.550249398352	0.001
14	288868	55.600249398352	0.002
14	288891	55.650249398352	0.001
14	289448	55.700249398352	0.002
14	289470	55.750249398352	0.001
14	290064	55.800249398352	0.002
14	290087	55.850249398352	0.001
14	290680	55.900249398352	0.002
14	290703	55.950249398352	0.001
14	291276	56.000249398352	0.002
14	291298	56.050249398352	0.001
14	291892	56.100249398352	0.002
14	291915	56.150249398352	0.001
14	292508	56.200249398352	0.002
14	292531	56.250249398352	0.001
14	293072	56.300249398352	0.002
14	293094	56.350249398352	0.001
14	293699	56.400249398352	0.002
14	293722	56.450249398352	0.001
14	294342	56.500249398352	0.002
14	294365	56.550249398352	0.001
14	294911	56.600249398352	0.002
14	294933	56.650249398352	0.001
14	295527	56.700249398352	0.002
14	295550	56.750249398352	0.001
14	296164	56.800249398352	0.002
14	296187	56.850249398352	0.001
14	296755	56.900249398352	0.002
14	296777	56.950249398352	0.001
14	297387	57.000249398352	0.002
14	297410	57.050249398352	0.001
14	297998	57.100249398352	0.002
14	298021	57.150249398352	0.001
14	298588	57.200249398352	0.002
14	298610	57.250249398352	0.001
14	299209	57.300249398352	0.002
14	299232	57.350249398352	0.001
14	299836	57.400249398352	0.002
14	299859	57.450249398352	0.001
14	300421	57.500249398352	0.002
14	300443	57.550249398352	0.001
14	301037	57.600249398352	0.002
14	301060	57.650249398352	0.001
14	301653	57.700249398352	0.002
14	301676	57.750249398352	0.001
14	302211	57.800249398352	0.002
14	302233	57.850249398352	0.001
14	302827	57.900249398352	0.002
14	302850	57.950249398352	0.001
14	303464	58.000249398352	0.002
14	303487	58.050249398352	0.001
14	304055	58.100249398352	0.002
14	304077	58.150249398352	0.001
14	304687	58.200249398352	0.002
14	304710	58.250249398352	0.001
14	305330	58.300249398352	0.002
14	305353	58.350249398352	0.001
14	305926	58.400249398352	0.002
14	305948	58.450249398352	0.001
14	306547	58.500249398352	0.002
14	306570	58.550249398352	0.001
14	307157	58.600249398352	0.002
14	307180	58.650249398352	0.001
14	307737	58.700249398352	0.002
14	307759	58.750249398352	0.001
14	308353	58.800249398352	0.002
14	308376	58.850249398352	0.001
14	308953	58.900249398352	0.002
14	308976	58.950249398352	0.001
14	309544	59.000249398352	0.002
14	309566	59.050249398352	0.001
14	310176	59.100249398352	0.002
14	310199	59.150249398352	0.001
14	310786	59.200249398352	0.002
14	310809	59.250249398352	0.001
14	311382	59.300249398352	0.002
14	311404	59.350249398352	0.001
14	312014	59.400249398352	0.002
14	312037	59.450249398352	0.001
14	312630	59.500249398352	0.002
14	312653	59.550249398352	0.001
14	313199	59.600249398352	0.002
14	313221	59.650249398352	0.001
14	313815	59.700249398352	0.002
14	313838	59.750249398352	0.001
14	314447	59.800249398352	0.002
14	314470	59.850249398352	0.001
14	315016	59.900249398352	0.002
14	315038	59.950249398352	0.001
14	315626	60.000249398352	0.002
14	315649	60.050249398352	0.001
14	316258	60.100249398352	0.002
14	316281	60.150249398352	0.001
14	316838	60.200249398352	0.002
14	316860	60.250249398352	0.001
14	317454	60.300249398352	0.002
14	317477	60.350249398352	0.001
14	318070	60.400249398352	0.002
14	318093	60.450249398352	0.001
14	318677	60.500249398352	0.002
14	318699	60.550249398352	0.001
14	319309	60.600249398352	0.002
14	319332	60.650249398352	0.001
14	319930	60.700249398352	0.002
14	319953	60.750249398352	0.001
14	320510	60.800249398352	0.002
14	320532	60.850249398352	0.001
14	321115	60.900249398352	0.002
14	321138	60.950249398352	0.001
14	321720	61.000249398352	0.002
14	321743	61.050249398352	0.001
14	322311	61.100249398352	0.002
14	322333	61.150249398352	0.001
14	322943	61.200249398352	0.002
14	322966	61.250249398352	0.001
14	323575	61.300249398352	0.002
14	323598	61.350249398352	0.001
14	324144	61.400249398352	0.002
14	324166	61.450249398352	0.001
14	324771	61.500249398352	0.002
14	324794	61.550249398352	0.001
14	325402	61.600249398352	0.002
14	325422	61.650249398352	0.001
14	325818	61.700249398352	0.002
14	325835	61.750249398352	0.001
14	326277	61.800249398352	0.002
14	326295	61.850249398352	0.001
14	326690	61.900249398352	0.002
14	326710	61.950249398352	0.001
14	327097	62.000249398352	0.002
14	327114	62.050249398352	0.001
14	327516	62.100249398352	0.002
14	327534	62.150249398352	0.001
14	327920	62.200249398352	0.002
14	327940	62.250249398352	0.001
14	328340	62.300249398352	0.002
14	328357	62.350249398352	0.001
14	328786	62.400249398352	0.002
14	328804	62.450249398352	0.001
14	329181	62.500249398352	0.002
14	329201	62.550249398352	0.001
14	329597	62.600249398352	0.002
14	329614	62.650249398352	0.001
14	330056	62.700249398352	0.002
14	330074	62.750249398352	0.001
14	330469	62.800249398352	0.002
14	330489	62.850249398352	0.001
14	330885	62.900249398352	0.002
14	330902	62.950249398352	0.001
14	331322	63.000249398352	0.002
14	331340	63.050249398352	0.001
14	331717	63.100249398352	0.002
14	331737	63.150249398352	0.001
14	332111	63.200249398352	0.002
14	332128	63.250249398352	0.001
14	332539	63.300249398352	0.002
14	332557	63.350249398352	0.001
14	332956	63.400249398352	0.002
14	332976	63.450249398352	0.001
14	333376	63.500249398352	0.002
14	333393	63.550249398352	0.001
14	333822	63.600249398352	0.002
14	333840	63.650249398352	0.001
14	334222	63.700249398352	0.002
14	334242	63.750249398352	0.001
14	334629	63.800249398352	0.002
14	334646	63.850249398352	0.001
14	335075	63.900249398352	0.002
14	335093	63.950249398352	0.001
14	335488	64.000249398352	0.002
14	335508	64.050249398352	0.001
14	335908	64.100249398352	0.002
14	335925	64.150249398352	0.001
14	336354	64.200249398352	0.002
14	336372	64.250249398352	0.001
14	336767	64.300249398352	0.002
14	336787	64.350249398352	0.001
14	337174	64.400249398352	0.002
14	337191	64.450249398352	0.001
14	337620	64.500249398352	0.002
14	337638	64.550249398352	0.001
14	338046	64.600249398352	0.002
14	338066	64.650249398352	0.001
14	338457	64.700249398352	0.002
14	338474	64.750249398352	0.001
14	338902	64.800249398352	0.002
14	338915	64.850249398352	0.001
14	339160	64.900249398352	0.002
14	339175	64.950249398352	0.001
14	339404	65.000249398352	0.002
14	339418	65.050249398352	0.001
14	339699	65.100249398352	0.002
14	339712	65.150249398352	0.001
14	339960	65.200249398352	0.002
14	339975	65.250249398352	0.001
14	340204	65.300249398352	0.002
14	340218	65.350249398352	0.001
14	340499	65.400249398352	0.002
14	340512	65.450249398352	0.001
14	340777	65.500249398352	0.002
14	340792	65.550249398352	0.001
14	341031	65.600249398352	0.002
14	341045	65.650249398352	0.001
14	341336	65.700249398352	0.002
14	341349	65.750249398352	0.001
14	341604	65.800249398352	0.002
14	341619	65.850249398352	0.001
14	341848	65.900249398352	0.002
14	341862	65.950249398352	0.001
14	342153	66.000249398352	0.002
14	342166	66.050249398352	0.001
14	342431	66.100249398352	0.002
14	342446	66.150249398352	0.001
14	342665	66.200249398352	0.002
14	342679	66.250249398352	0.001
14	342960	66.300249398352	0.002
14	342973	66.350249398352	0.001
14	343221	66.400249398352	0.002
14	343236	66.450249398352	0.001
14	343455	66.500249398352	0.002
14	343469	66.550249398352	0.001
14	343750	66.600249398352	0.002
14	343763	66.650249398352	0.001
14	344028	66.700249398352	0.002
14	344043	66.750249398352	0.001
14	344265	66.800249398352	0.002
14	344279	66.850249398352	0.001
14	344550	66.900249398352	0.002
14	344563	66.950249398352	0.001
14	344818	67.000249398352	0.002
14	344833	67.050249398352	0.001
14	345062	67.100249398352	0.002
14	345076	67.150249398352	0.001
14	345350	67.200249398352	0.002
14	345363	67.250249398352	0.001
14	345618	67.300249398352	0.002
14	345633	67.350249398352	0.001
14	345862	67.400249398352	0.002
14	345876	67.450249398352	0.001
14	346157	67.500249398352	0.002
14	346170	67.550249398352	0.001
14	346414	67.600249398352	0.002
14	346424	67.650249398352	0.001
14	346548	67.700249398352	0.002
14	346558	67.750249398352	0.001
14	346702	67.800249398352	0.002
14	346711	67.850249398352	0.001
14	346855	67.900249398352	0.002
14	346865	67.950249398352	0.001
14	346989	68.000249398352	0.002
14	346999	68.050249398352	0.001
14	347143	68.100249398352	0.002
14	347152	68.150249398352	0.001
14	347289	68.200249398352	0.002
14	347299	68.250249398352	0.001
14	347423	68.300249398352	0.002
14	347433	68.350249398352	0.001
14	347577	68.400249398352	0.002
14	347586	68.450249398352	0.001
14	347730	68.500249398352	0.002
14	347740	68.550249398352	0.001
14	347857	68.600249398352	0.002
14	347867	68.650249398352	0.001
14	348011	68.700249398352	0.002
14	348020	68.750249398352	0.001
14	348157	68.800249398352	0.002
14	348167	68.850249398352	0.001
14	348284	68.900249398352	0.002
14	348294	68.950249398352	0.001
14	348431	69.000249398352	0.002
14	348440	69.050249398352	0.001
14	348584	69.100249398352	0.002
14	348594	69.150249398352	0.001
14	348711	69.200249398352	0.002
14	348721	69.250249398352	0.001
14	348858	69.300249398352	0.002
14	348867	69.350249398352	0.001
14	349011	69.400249398352	0.002
14	349021	69.450249398352	0.001
14	349145	69.500249398352	0.002
14	349155	69.550249398352	0.001
14	349299	69.600249398352	0.002
14	349308	69.650249398352	0.001
14	349452	69.700249398352	0.002
14	349462	69.750249398352	0.001
14	349579	69.800249398352	0.002
14	349589	69.850249398352	0.001
14	349726	69.900249398352	0.002
14	349735	69.950249398352	0.001
14	349879	70.000249398352	0.002
14	349889	70.050249398352	0.001
14	350013	70.100249398352	0.002
14	350023	70.150249398352	0.001
14	350160	70.200249398352	0.002
14	350169	70.250249398352	0.001
14	350313	70.300249398352	0.002
14	350323	70.350249398352	0.001
14	350447	70.400249398352	0.002
14	350457	70.450249398352	0.001
14	350601	70.500249398352	0.002
14	350610	70.550249398352	0.001
14	350754	70.600249398352	0.002
14	350764	70.650249398352	0.001
14	350881	70.700249398352	0.002
14	350891	70.750249398352	0.001
14	351034	70.800249398352	0.002
14	351039	70.850249398352	0.001
14	351098	70.900249398352	0.002
14	351103	70.950249398352	0.001
14	351148	71.000249398352	0.002
14	351154	71.050249398352	0.001
14	351199	71.100249398352	0.002
14	351204	71.150249398352	0.001
14	351263	71.200249398352	0.002
14	351268	71.250249398352	0.001
14	351313	71.300249398352	0.002
14	351319	71.350249398352	0.001
14	351364	71.400249398352	0.002
14	351369	71.450249398352	0.001
14	351428	71.500249398352	0.002
14	351433	71.550249398352	0.001
14	351478	71.600249398352	0.002
14	351484	71.650249398352	0.001
14	351529	71.700249398352	0.002
14	351534	71.750249398352	0.001
14	351593	71.800249398352	0.002
14	351598	71.850249398352	0.001
14	351643	71.900249398352	0.002
14	351649	71.950249398352	0.001
14	351694	72.000249398352	0.002
14	351699	72.050249398352	0.001
14	351758	72.100249398352	0.002
14	351763	72.150249398352	0.001
14	351808	72.200249398352	0.002
14	351814	72.250249398352	0.001
14	351859	72.300249398352	0.002
14	351864	72.350249398352	0.001
14	351923	72.400249398352	0.002
14	351928	72.450249398352	0.001
14	351973	72.500249398352	0.002
14	351979	72.550249398352	0.001
14	352024	72.600249398352	0.002
14	352029	72.650249398352	0.001
14	352088	72.700249398352	0.002
14	352093	72.750249398352	0.001
14	352138	72.800249398352	0.002
14	352144	72.850249398352	0.001
14	352189	72.900249398352	0.002
14	352194	72.950249398352	0.001
14	352253	73.000249398352	0.002
14	352258	73.050249398352	0.001
14	352303	73.100249398352	0.002
14	352309	73.150249398352	0.001
14	352354	73.200249398352	0.002
14	352359	73.250249398352	0.001
14	352418	73.300249398352	0.002
14	352423	73.350249398352	0.001
14	352468	73.400249398352	0.002
14	352474	73.450249398352	0.001
14	352519	73.500249398352	0.002
14	352524	73.550249398352	0.001
14	352582	73.600249398352	0.002
14	352583	73.650249398352	0.001
14	352584	73.700249398352	0.002
14	352585	73.750249398352	0.001
14	352586	73.800249398352	0.002
14	352587	73.850249398352	0.001
14	352588	73.900249398352	0.002
14	352589	73.950249398352	0.001
14	352590	74.000249398352	0.002
14	352591	74.050249398352	0.001
14	352592	74.100249398352	0.002
14	352593	74.150249398352	0.001
14	352594	74.200249398352	0.002
14	352595	74.250249398352	0.001
14	352596	74.300249398352	0.002
14	352597	74.350249398352	0.001
14	352598	74.400249398352	0.002
14	352599	74.450249398352	0.001
14	352600	74.500249398352	0.002
14	352601	74.550249398352	0.001
14	352602	74.600249398352	0.002
14	352603	74.650249398352	0.001
14	352604	74.700249398352	0.002
14	352605	74.750249398352	0.001
14	352606	74.800249398352	0.002
14	352607	74.850249398352	0.001
14	352608	74.900249398352	0.002
14	352609	74.950249398352	0.001
14	352610	75.000249398352	0.002
14	352611	75.050249398352	0.001
14	352612	75.100249398352	0.002
14	352613	75.150249398352	0.001
14	352614	75.200249398352	0.002
14	352615	75.250249398352	0.001
14	352616	75.300249398352	0.002
14	352617	75.350249398352	0.001
14	352618	75.400249398352	0.002
14	352619	75.450249398352	0.001
14	352620	75.500249398352	0.002
14	352621	75.550249398352	0.001
14	352622	75.600249398352	0.002
14	352623	75.650249398352	0.001
14	352624	75.700249398352	0.002
14	352625	75.750249398352	0.001
14	352626	75.800249398352	0.002
14	352627	75.850249398352	0.001
14	352628	75.900249398352	0.002
14	352629	75.950249398352	0.001
