version 2
run VoIP-50ms_440B-7-20160923-14:16:58-14744
attr configname VoIP-50ms_440B
attr datetime 20160923-14:16:58
attr experiment VoIP-50ms_440B
attr inifile omnetpp.ini
attr iterationvars ""
attr iterationvars2 $repetition=7
attr measurement ""
attr network SymScenerio
attr processid 14744
attr repetition 7
attr replication #7
attr resultdir results
attr runnumber 7
attr seedset 7
param **.coreDebug false
param **.debug false
param *.**.nic.mac1609_4.bitrate 18Mbps
param *.**.nic.mac1609_4.txPower 20mW
param *.**.nic.mac1609_4.useServiceChannel true
param *.**.nic.phy80211p.analogueModels "xmldoc(\"config.xml\")"
param *.**.nic.phy80211p.decider "xmldoc(\"config.xml\")"
param *.**.nic.phy80211p.sensitivity -89dBm
param *.**.nic.phy80211p.thermalNoise -110dBm
param *.**.nic.phy80211p.usePropagationDelay true
param *.**.nic.phy80211p.useThermalNoise true
param *.annotations.draw false
param *.connectionManager.alpha 2.0
param *.connectionManager.carrierFrequency "5.890e9 Hz"
param *.connectionManager.pMax 20mW
param *.connectionManager.sat -89dBm
param *.connectionManager.sendDirect true
param *.manager.autoShutdown true
param *.manager.host "\"localhost\""
param *.manager.launchConfig "xmldoc(\"map.launchd.xml\")"
param *.manager.margin 25
param *.manager.moduleDisplayString "\"\""
param *.manager.moduleName "\"node\""
param *.manager.moduleType "\"symulacja.veins.nodes.Car\""
param *.manager.port 9999
param *.manager.updateInterval 0.1s
param *.node[*].appl.beaconInterval 1s
param *.node[*].appl.beaconPriority 3
param *.node[*].appl.dataOnSch false
param *.node[*].appl.dataPriority 2
param *.node[*].appl.debug false
param *.node[*].appl.maxOffset 0.005s
param *.node[*].appl.sendBeacons false
param *.node[*].appl.sendData true
param *.node[*].appl.sendVoIP true
param *.node[*].appl.voipInterval 0.050s
param *.node[*].appl.voipLengthBits 3520bit
param *.node[*].appl.voipOnSch true
param *.node[*].appl.voipPriority 3
param *.node[*].applType "\"Sym11p\""
param *.node[*].veinsmobility.x 0
param *.node[*].veinsmobility.y 0
param *.node[*].veinsmobility.z 1.895
param *.node[*].veinsmobilityType "\"symulacja.veins.modules.mobility.traci.TraCIMobility\""
param *.playgroundSizeX 9000m
param *.playgroundSizeY 9000m
param *.playgroundSizeZ 50m
param *.rsu[*].appl.beaconInterval 1s
param *.rsu[*].appl.beaconPriority 3
param *.rsu[*].appl.dataOnSch false
param *.rsu[*].appl.dataPriority 2
param *.rsu[*].appl.debug false
param *.rsu[*].appl.headerLength "256 bit"
param *.rsu[*].appl.maxOffset 0.005s
param *.rsu[*].appl.sendBeacons false
param *.rsu[*].appl.sendData false
param *.rsu[*].appl.sendVoIP false
param *.rsu[*].applType "\"SymRSU11p\""
param *.rsu[0].mobility.x 2160
param *.rsu[0].mobility.y 3100
param *.rsu[0].mobility.z 3
param *.world.use2D false
param *.world.useTorus false

vector 14  SymScenerio.rsu[0].nic.mac1609_4  "Interwały kanałów"  ETV
vector 23  SymScenerio.node[0].veinsmobility  posx  ETV
vector 24  SymScenerio.node[0].veinsmobility  posy  ETV
vector 22  SymScenerio.node[0].nic.mac1609_4  "Interwały kanałów"  ETV
vector 25  SymScenerio.node[0].veinsmobility  speed  ETV
vector 26  SymScenerio.node[0].veinsmobility  acceleration  ETV
vector 27  SymScenerio.node[0].veinsmobility  co2emission  ETV
vector 15  SymScenerio.node[0].appl  "TX Packets"  ETV
vector 16  SymScenerio.node[0].appl  "TX Total"  ETV
vector 17  SymScenerio.node[0].appl  Pakietyzacja  ETV
vector 5  SymScenerio.rsu[0].appl  nodeALL:vector  ETV
attr source  nodeALL
attr title  "Opoznienia ALL, vector"
vector 9  SymScenerio.rsu[0].appl  "RX Packet"  ETV
vector 0  SymScenerio.rsu[0].appl  node0:vector  ETV
attr source  node0
attr title  "Opoznienia node0, vector"
vector 36  SymScenerio.node[1].veinsmobility  posx  ETV
vector 37  SymScenerio.node[1].veinsmobility  posy  ETV
vector 35  SymScenerio.node[1].nic.mac1609_4  "Interwały kanałów"  ETV
vector 38  SymScenerio.node[1].veinsmobility  speed  ETV
vector 39  SymScenerio.node[1].veinsmobility  acceleration  ETV
vector 40  SymScenerio.node[1].veinsmobility  co2emission  ETV
vector 28  SymScenerio.node[1].appl  "TX Packets"  ETV
vector 29  SymScenerio.node[1].appl  "TX Total"  ETV
vector 30  SymScenerio.node[1].appl  Pakietyzacja  ETV
vector 1  SymScenerio.rsu[0].appl  node1:vector  ETV
attr source  node1
attr title  "Opoznienia node1, vector"
vector 49  SymScenerio.node[2].veinsmobility  posx  ETV
vector 50  SymScenerio.node[2].veinsmobility  posy  ETV
vector 48  SymScenerio.node[2].nic.mac1609_4  "Interwały kanałów"  ETV
vector 51  SymScenerio.node[2].veinsmobility  speed  ETV
vector 52  SymScenerio.node[2].veinsmobility  acceleration  ETV
vector 53  SymScenerio.node[2].veinsmobility  co2emission  ETV
vector 41  SymScenerio.node[2].appl  "TX Packets"  ETV
vector 42  SymScenerio.node[2].appl  "TX Total"  ETV
vector 43  SymScenerio.node[2].appl  Pakietyzacja  ETV
vector 2  SymScenerio.rsu[0].appl  node2:vector  ETV
attr source  node2
attr title  "Opoznienia node2, vector"
vector 62  SymScenerio.node[3].veinsmobility  posx  ETV
vector 63  SymScenerio.node[3].veinsmobility  posy  ETV
vector 61  SymScenerio.node[3].nic.mac1609_4  "Interwały kanałów"  ETV
vector 54  SymScenerio.node[3].appl  "TX Packets"  ETV
vector 55  SymScenerio.node[3].appl  "TX Total"  ETV
vector 56  SymScenerio.node[3].appl  Pakietyzacja  ETV
vector 3  SymScenerio.rsu[0].appl  node3:vector  ETV
attr source  node3
attr title  "Opoznienia node3, vector"
vector 64  SymScenerio.node[3].veinsmobility  speed  ETV
vector 65  SymScenerio.node[3].veinsmobility  acceleration  ETV
vector 66  SymScenerio.node[3].veinsmobility  co2emission  ETV
vector 75  SymScenerio.node[4].veinsmobility  posx  ETV
vector 76  SymScenerio.node[4].veinsmobility  posy  ETV
vector 74  SymScenerio.node[4].nic.mac1609_4  "Interwały kanałów"  ETV
vector 77  SymScenerio.node[4].veinsmobility  speed  ETV
vector 78  SymScenerio.node[4].veinsmobility  acceleration  ETV
vector 79  SymScenerio.node[4].veinsmobility  co2emission  ETV
vector 67  SymScenerio.node[4].appl  "TX Packets"  ETV
vector 68  SymScenerio.node[4].appl  "TX Total"  ETV
vector 69  SymScenerio.node[4].appl  Pakietyzacja  ETV
vector 4  SymScenerio.rsu[0].appl  node4:vector  ETV
attr source  node4
attr title  "Opoznienia node4, vector"
17	52	1.08899475811	1.002
17	70	1.13899475811	1.002
17	87	1.18899475811	1.002
17	105	1.23899475811	1.002
17	122	1.28899475811	1.002
17	140	1.33899475811	1.002
17	157	1.38899475811	1.002
17	175	1.43899475811	1.002
17	192	1.48899475811	1.002
17	210	1.53899475811	1.002
17	227	1.58899475811	1.002
17	245	1.63899475811	1.002
17	262	1.68899475811	1.002
17	280	1.73899475811	1.002
17	297	1.78899475811	1.002
17	315	1.83899475811	1.002
17	332	1.88899475811	1.002
17	350	1.93899475811	1.002
17	367	1.98899475811	1.002
17	385	2.03899475811	1.002
17	402	2.08899475811	1.002
17	420	2.13899475811	1.002
17	437	2.18899475811	1.002
17	455	2.23899475811	1.002
17	472	2.28899475811	1.002
17	490	2.33899475811	1.002
17	507	2.38899475811	1.002
17	525	2.43899475811	1.002
17	542	2.48899475811	1.002
17	560	2.53899475811	1.002
17	577	2.58899475811	1.002
17	595	2.63899475811	1.002
17	612	2.68899475811	1.002
17	630	2.73899475811	1.002
17	647	2.78899475811	1.002
17	665	2.83899475811	1.002
17	682	2.88899475811	1.002
17	700	2.93899475811	1.002
17	717	2.98899475811	1.002
17	735	3.03899475811	1.002
17	752	3.08899475811	1.002
17	770	3.13899475811	1.002
17	794	3.18899475811	1.002
17	819	3.23899475811	1.002
17	843	3.28899475811	1.002
17	868	3.33899475811	1.002
17	892	3.38899475811	1.002
17	917	3.43899475811	1.002
17	941	3.48899475811	1.002
17	966	3.53899475811	1.002
17	990	3.58899475811	1.002
17	1015	3.63899475811	1.002
17	1039	3.68899475811	1.002
17	1064	3.73899475811	1.002
17	1088	3.78899475811	1.002
17	1113	3.83899475811	1.002
17	1137	3.88899475811	1.002
17	1183	3.93899475811	1.002
17	1228	3.98899475811	1.002
17	1274	4.03899475811	1.002
17	1319	4.08899475811	1.002
17	1365	4.13899475811	1.002
17	1410	4.18899475811	1.002
17	1456	4.23899475811	1.002
17	1501	4.28899475811	1.002
17	1547	4.33899475811	1.002
17	1592	4.38899475811	1.002
17	1638	4.43899475811	1.002
17	1683	4.48899475811	1.002
17	1729	4.53899475811	1.002
17	1774	4.58899475811	1.002
17	1820	4.63899475811	1.002
17	1865	4.68899475811	1.002
17	1911	4.73899475811	1.002
17	1956	4.78899475811	1.002
17	2002	4.83899475811	1.002
17	2047	4.88899475811	1.002
17	2093	4.93899475811	1.002
17	2138	4.98899475811	1.002
17	2184	5.03899475811	1.002
17	2229	5.08899475811	1.002
17	2275	5.13899475811	1.002
17	2320	5.18899475811	1.002
17	2366	5.23899475811	1.002
17	2411	5.28899475811	1.002
17	2457	5.33899475811	1.002
17	2502	5.38899475811	1.002
17	2548	5.43899475811	1.002
17	2593	5.48899475811	1.002
17	2639	5.53899475811	1.002
17	2684	5.58899475811	1.002
17	2730	5.63899475811	1.002
17	2775	5.68899475811	1.002
17	2821	5.73899475811	1.002
17	2866	5.78899475811	1.002
17	2912	5.83899475811	1.002
17	2957	5.88899475811	1.002
17	3003	5.93899475811	1.002
17	3048	5.98899475811	1.002
17	3094	6.03899475811	1.002
17	3139	6.08899475811	1.002
17	3185	6.13899475811	1.002
17	3243	6.18899475811	1.002
17	3302	6.23899475811	1.002
17	3360	6.28899475811	1.002
17	3419	6.33899475811	1.002
17	3504	6.38899475811	1.002
17	3565	6.43899475811	1.002
17	3675	6.48899475811	1.002
17	3736	6.53899475811	1.002
17	3846	6.58899475811	1.002
17	3907	6.63899475811	1.002
17	4017	6.68899475811	1.002
17	4078	6.73899475811	1.002
17	4178	6.78899475811	1.002
17	4239	6.83899475811	1.002
17	4349	6.88899475811	1.002
17	4410	6.93899475811	1.002
17	4520	6.98899475811	1.002
17	4581	7.03899475811	1.002
17	4691	7.08899475811	1.002
17	4752	7.13899475811	1.002
17	4862	7.18899475811	1.002
17	4923	7.23899475811	1.002
17	5033	7.28899475811	1.002
17	5094	7.33899475811	1.002
17	5204	7.38899475811	1.002
17	5265	7.43899475811	1.002
17	5375	7.48899475811	1.002
17	5436	7.53899475811	1.002
17	5546	7.58899475811	1.002
17	5607	7.63899475811	1.002
17	5707	7.68899475811	1.002
17	5768	7.73899475811	1.002
17	5878	7.78899475811	1.002
17	5939	7.83899475811	1.002
17	6049	7.88899475811	1.002
17	6110	7.93899475811	1.002
17	6220	7.98899475811	1.002
17	6281	8.03899475811	1.002
17	6391	8.08899475811	1.002
17	6452	8.13899475811	1.002
17	6552	8.18899475811	1.002
17	6613	8.23899475811	1.002
17	6723	8.28899475811	1.002
17	6784	8.33899475811	1.002
17	6894	8.38899475811	1.002
17	6955	8.43899475811	1.002
17	7065	8.48899475811	1.002
17	7126	8.53899475811	1.002
17	7236	8.58899475811	1.002
17	7297	8.63899475811	1.002
17	7407	8.68899475811	1.002
17	7468	8.73899475811	1.002
17	7578	8.78899475811	1.002
17	7639	8.83899475811	1.002
17	7749	8.88899475811	1.002
17	7810	8.93899475811	1.002
17	7920	8.98899475811	1.002
17	7981	9.03899475811	1.002
17	8091	9.08899475811	1.002
17	8152	9.13899475811	1.002
17	8307	9.18899475811	1.002
17	8383	9.23899475811	1.002
17	8570	9.28899475811	1.002
17	8646	9.33899475811	1.002
17	8823	9.38899475811	1.002
17	8899	9.43899475811	1.002
17	9085	9.48899475811	1.002
17	9161	9.53899475811	1.002
17	9347	9.58899475811	1.002
17	9423	9.63899475811	1.002
17	9609	9.68899475811	1.002
17	9685	9.73899475811	1.002
17	9884	9.78899475811	1.002
17	9960	9.83899475811	1.002
17	10146	9.88899475811	1.002
17	10222	9.93899475811	1.002
17	10421	9.98899475811	1.002
17	10497	10.03899475811	1.002
17	10683	10.08899475811	1.002
17	10759	10.13899475811	1.002
17	10958	10.18899475811	1.002
17	11034	10.23899475811	1.002
17	11220	10.28899475811	1.002
17	11296	10.33899475811	1.002
17	11495	10.38899475811	1.002
17	11571	10.43899475811	1.002
17	11757	10.48899475811	1.002
17	11833	10.53899475811	1.002
17	12019	10.58899475811	1.002
17	12095	10.63899475811	1.002
17	12281	10.68899475811	1.002
17	12357	10.73899475811	1.002
17	12556	10.78899475811	1.002
17	12632	10.83899475811	1.002
17	12831	10.88899475811	1.002
17	12907	10.93899475811	1.002
17	13106	10.98899475811	1.002
17	13182	11.03899475811	1.002
17	13368	11.08899475811	1.002
17	13444	11.13899475811	1.002
17	13630	11.18899475811	1.002
17	13706	11.23899475811	1.002
17	13892	11.28899475811	1.002
17	13968	11.33899475811	1.002
17	14167	11.38899475811	1.002
17	14243	11.43899475811	1.002
17	14429	11.48899475811	1.002
17	14505	11.53899475811	1.002
17	14691	11.58899475811	1.002
17	14767	11.63899475811	1.002
17	14966	11.68899475811	1.002
17	15042	11.73899475811	1.002
17	15228	11.78899475811	1.002
17	15304	11.83899475811	1.002
17	15503	11.88899475811	1.002
17	15579	11.93899475811	1.002
17	15778	11.98899475811	1.002
17	15854	12.03899475811	1.002
17	16040	12.08899475811	1.002
17	16116	12.13899475811	1.002
17	16352	12.18899475811	1.002
17	16441	12.23899475811	1.002
17	16661	12.28899475811	1.002
17	16750	12.33899475811	1.002
17	16986	12.38899475811	1.002
17	17075	12.43899475811	1.002
17	17295	12.48899475811	1.002
17	17384	12.53899475811	1.002
17	17604	12.58899475811	1.002
17	17693	12.63899475811	1.002
17	17929	12.68899475811	1.002
17	18018	12.73899475811	1.002
17	18254	12.78899475811	1.002
17	18343	12.83899475811	1.002
17	18579	12.88899475811	1.002
17	18668	12.93899475811	1.002
17	18943	12.98899475811	1.002
17	19034	13.03899475811	1.002
17	19331	13.08899475811	1.002
17	19422	13.13899475811	1.002
17	19718	13.18899475811	1.002
17	19809	13.23899475811	1.002
17	20094	13.28899475811	1.002
17	20185	13.33899475811	1.002
17	20482	13.38899475811	1.002
17	20573	13.43899475811	1.002
17	20869	13.48899475811	1.002
17	20960	13.53899475811	1.002
17	21234	13.58899475811	1.002
17	21325	13.63899475811	1.002
17	21610	13.68899475811	1.002
17	21701	13.73899475811	1.002
17	21997	13.78899475811	1.002
17	22088	13.83899475811	1.002
17	22373	13.88899475811	1.002
17	22464	13.93899475811	1.002
17	22776	13.98899475811	1.002
17	22867	14.03899475811	1.002
17	23147	14.08899475811	1.002
17	23238	14.13899475811	1.002
17	23534	14.18899475811	1.002
17	23625	14.23899475811	1.002
17	23905	14.28899475811	1.002
17	23996	14.33899475811	1.002
17	24281	14.38899475811	1.002
17	24372	14.43899475811	1.002
17	24652	14.48899475811	1.002
17	24743	14.53899475811	1.002
17	25028	14.58899475811	1.002
17	25119	14.63899475811	1.002
17	25404	14.68899475811	1.002
17	25495	14.73899475811	1.002
17	25780	14.78899475811	1.002
17	25871	14.83899475811	1.002
17	26167	14.88899475811	1.002
17	26258	14.93899475811	1.002
17	26554	14.98899475811	1.002
17	26645	15.03899475811	1.002
17	26941	15.08899475811	1.002
17	27032	15.13899475811	1.002
17	27317	15.18899475811	1.002
17	27408	15.23899475811	1.002
17	27704	15.28899475811	1.002
17	27795	15.33899475811	1.002
17	28107	15.38899475811	1.002
17	28198	15.43899475811	1.002
17	28510	15.48899475811	1.002
17	28601	15.53899475811	1.002
17	28886	15.58899475811	1.002
17	28977	15.63899475811	1.002
17	29273	15.68899475811	1.002
17	29364	15.73899475811	1.002
17	29644	15.78899475811	1.002
17	29735	15.83899475811	1.002
17	30015	15.88899475811	1.002
17	30106	15.93899475811	1.002
17	30386	15.98899475811	1.002
17	30477	16.03899475811	1.002
17	30762	16.08899475811	1.002
17	30853	16.13899475811	1.002
17	31138	16.18899475811	1.002
17	31229	16.23899475811	1.002
17	31514	16.28899475811	1.002
17	31605	16.33899475811	1.002
17	31901	16.38899475811	1.002
17	31992	16.43899475811	1.002
17	32304	16.48899475811	1.002
17	32395	16.53899475811	1.002
17	32691	16.58899475811	1.002
17	32782	16.63899475811	1.002
17	33078	16.68899475811	1.002
17	33169	16.73899475811	1.002
17	33449	16.78899475811	1.002
17	33540	16.83899475811	1.002
17	33852	16.88899475811	1.002
17	33943	16.93899475811	1.002
17	34239	16.98899475811	1.002
17	34330	17.03899475811	1.002
17	34626	17.08899475811	1.002
17	34717	17.13899475811	1.002
17	35013	17.18899475811	1.002
17	35104	17.23899475811	1.002
17	35400	17.28899475811	1.002
17	35491	17.33899475811	1.002
17	35771	17.38899475811	1.002
17	35862	17.43899475811	1.002
17	36147	17.48899475811	1.002
17	36238	17.53899475811	1.002
17	36523	17.58899475811	1.002
17	36614	17.63899475811	1.002
17	36910	17.68899475811	1.002
17	37001	17.73899475811	1.002
17	37275	17.78899475811	1.002
17	37366	17.83899475811	1.002
17	37662	17.88899475811	1.002
17	37753	17.93899475811	1.002
17	38049	17.98899475811	1.002
17	38140	18.03899475811	1.002
17	38436	18.08899475811	1.002
17	38527	18.13899475811	1.002
17	38823	18.18899475811	1.002
17	38914	18.23899475811	1.002
17	39226	18.28899475811	1.002
17	39317	18.33899475811	1.002
17	39613	18.38899475811	1.002
17	39704	18.43899475811	1.002
17	40000	18.48899475811	1.002
17	40091	18.53899475811	1.002
17	40387	18.58899475811	1.002
17	40478	18.63899475811	1.002
17	40790	18.68899475811	1.002
17	40881	18.73899475811	1.002
17	41177	18.78899475811	1.002
17	41268	18.83899475811	1.002
17	41564	18.88899475811	1.002
17	41655	18.93899475811	1.002
17	41967	18.98899475811	1.002
17	42058	19.03899475811	1.002
17	42354	19.08899475811	1.002
17	42445	19.13899475811	1.002
17	42725	19.18899475811	1.002
17	42816	19.23899475811	1.002
17	43096	19.28899475811	1.002
17	43187	19.33899475811	1.002
17	43467	19.38899475811	1.002
17	43558	19.43899475811	1.002
17	43854	19.48899475811	1.002
17	43945	19.53899475811	1.002
17	44230	19.58899475811	1.002
17	44321	19.63899475811	1.002
17	44617	19.68899475811	1.002
17	44708	19.73899475811	1.002
17	45004	19.78899475811	1.002
17	45095	19.83899475811	1.002
17	45380	19.88899475811	1.002
17	45471	19.93899475811	1.002
17	45751	19.98899475811	1.002
17	45842	20.03899475811	1.002
17	46127	20.08899475811	1.002
17	46218	20.13899475811	1.002
17	46503	20.18899475811	1.002
17	46594	20.23899475811	1.002
17	46890	20.28899475811	1.002
17	46981	20.33899475811	1.002
17	47277	20.38899475811	1.002
17	47368	20.43899475811	1.002
17	47664	20.48899475811	1.002
17	47755	20.53899475811	1.002
17	48051	20.58899475811	1.002
17	48142	20.63899475811	1.002
17	48427	20.68899475811	1.002
17	48518	20.73899475811	1.002
17	48814	20.78899475811	1.002
17	48905	20.83899475811	1.002
17	49185	20.88899475811	1.002
17	49276	20.93899475811	1.002
17	49572	20.98899475811	1.002
17	49663	21.03899475811	1.002
17	49948	21.08899475811	1.002
17	50039	21.13899475811	1.002
17	50324	21.18899475811	1.002
17	50415	21.23899475811	1.002
17	50700	21.28899475811	1.002
17	50791	21.33899475811	1.002
17	51087	21.38899475811	1.002
17	51178	21.43899475811	1.002
17	51474	21.48899475811	1.002
17	51565	21.53899475811	1.002
17	51861	21.58899475811	1.002
17	51952	21.63899475811	1.002
17	52232	21.68899475811	1.002
17	52323	21.73899475811	1.002
17	52619	21.78899475811	1.002
17	52710	21.83899475811	1.002
17	53006	21.88899475811	1.002
17	53097	21.93899475811	1.002
17	53393	21.98899475811	1.002
17	53484	22.03899475811	1.002
17	53769	22.08899475811	1.002
17	53860	22.13899475811	1.002
17	54156	22.18899475811	1.002
17	54247	22.23899475811	1.002
17	54532	22.28899475811	1.002
17	54623	22.33899475811	1.002
17	54903	22.38899475811	1.002
17	54994	22.43899475811	1.002
17	55290	22.48899475811	1.002
17	55381	22.53899475811	1.002
17	55666	22.58899475811	1.002
17	55757	22.63899475811	1.002
17	56042	22.68899475811	1.002
17	56133	22.73899475811	1.002
17	56429	22.78899475811	1.002
17	56520	22.83899475811	1.002
17	56805	22.88899475811	1.002
17	56896	22.93899475811	1.002
17	57208	22.98899475811	1.002
17	57299	23.03899475811	1.002
17	57595	23.08899475811	1.002
17	57686	23.13899475811	1.002
17	57966	23.18899475811	1.002
17	58057	23.23899475811	1.002
17	58337	23.28899475811	1.002
17	58428	23.33899475811	1.002
17	58713	23.38899475811	1.002
17	58804	23.43899475811	1.002
17	59100	23.48899475811	1.002
17	59191	23.53899475811	1.002
17	59476	23.58899475811	1.002
17	59567	23.63899475811	1.002
17	59863	23.68899475811	1.002
17	59954	23.73899475811	1.002
17	60250	23.78899475811	1.002
17	60341	23.83899475811	1.002
17	60637	23.88899475811	1.002
17	60728	23.93899475811	1.002
17	61013	23.98899475811	1.002
17	61104	24.03899475811	1.002
17	61400	24.08899475811	1.002
17	61491	24.13899475811	1.002
17	61771	24.18899475811	1.002
17	61862	24.23899475811	1.002
17	62142	24.28899475811	1.002
17	62233	24.33899475811	1.002
17	62529	24.38899475811	1.002
17	62620	24.43899475811	1.002
17	62894	24.48899475811	1.002
17	62985	24.53899475811	1.002
17	63265	24.58899475811	1.002
17	63356	24.63899475811	1.002
17	63652	24.68899475811	1.002
17	63743	24.73899475811	1.002
17	64039	24.78899475811	1.002
17	64130	24.83899475811	1.002
17	64426	24.88899475811	1.002
17	64517	24.93899475811	1.002
17	64813	24.98899475811	1.002
17	64904	25.03899475811	1.002
17	65200	25.08899475811	1.002
17	65291	25.13899475811	1.002
17	65565	25.18899475811	1.002
17	65656	25.23899475811	1.002
17	65941	25.28899475811	1.002
17	66032	25.33899475811	1.002
17	66328	25.38899475811	1.002
17	66419	25.43899475811	1.002
17	66715	25.48899475811	1.002
17	66806	25.53899475811	1.002
17	67091	25.58899475811	1.002
17	67182	25.63899475811	1.002
17	67462	25.68899475811	1.002
17	67553	25.73899475811	1.002
17	67849	25.78899475811	1.002
17	67940	25.83899475811	1.002
17	68236	25.88899475811	1.002
17	68327	25.93899475811	1.002
17	68623	25.98899475811	1.002
17	68714	26.03899475811	1.002
17	68999	26.08899475811	1.002
17	69090	26.13899475811	1.002
17	69370	26.18899475811	1.002
17	69461	26.23899475811	1.002
17	69757	26.28899475811	1.002
17	69848	26.33899475811	1.002
17	70144	26.38899475811	1.002
17	70235	26.43899475811	1.002
17	70531	26.48899475811	1.002
17	70622	26.53899475811	1.002
17	70918	26.58899475811	1.002
17	71009	26.63899475811	1.002
17	71294	26.68899475811	1.002
17	71385	26.73899475811	1.002
17	71659	26.78899475811	1.002
17	71750	26.83899475811	1.002
17	72046	26.88899475811	1.002
17	72137	26.93899475811	1.002
17	72433	26.98899475811	1.002
17	72524	27.03899475811	1.002
17	72820	27.08899475811	1.002
17	72911	27.13899475811	1.002
17	73191	27.18899475811	1.002
17	73282	27.23899475811	1.002
17	73578	27.28899475811	1.002
17	73669	27.33899475811	1.002
17	73949	27.38899475811	1.002
17	74040	27.43899475811	1.002
17	74320	27.48899475811	1.002
17	74411	27.53899475811	1.002
17	74691	27.58899475811	1.002
17	74782	27.63899475811	1.002
17	75078	27.68899475811	1.002
17	75169	27.73899475811	1.002
17	75465	27.78899475811	1.002
17	75556	27.83899475811	1.002
17	75852	27.88899475811	1.002
17	75943	27.93899475811	1.002
17	76239	27.98899475811	1.002
17	76330	28.03899475811	1.002
17	76642	28.08899475811	1.002
17	76733	28.13899475811	1.002
17	77029	28.18899475811	1.002
17	77120	28.23899475811	1.002
17	77405	28.28899475811	1.002
17	77496	28.33899475811	1.002
17	77792	28.38899475811	1.002
17	77883	28.43899475811	1.002
17	78195	28.48899475811	1.002
17	78286	28.53899475811	1.002
17	78582	28.58899475811	1.002
17	78673	28.63899475811	1.002
17	78969	28.68899475811	1.002
17	79060	28.73899475811	1.002
17	79356	28.78899475811	1.002
17	79447	28.83899475811	1.002
17	79743	28.88899475811	1.002
17	79834	28.93899475811	1.002
17	80130	28.98899475811	1.002
17	80221	29.03899475811	1.002
17	80517	29.08899475811	1.002
17	80608	29.13899475811	1.002
17	80904	29.18899475811	1.002
17	80995	29.23899475811	1.002
17	81291	29.28899475811	1.002
17	81382	29.33899475811	1.002
17	81678	29.38899475811	1.002
17	81769	29.43899475811	1.002
17	82081	29.48899475811	1.002
17	82172	29.53899475811	1.002
17	82468	29.58899475811	1.002
17	82559	29.63899475811	1.002
17	82855	29.68899475811	1.002
17	82946	29.73899475811	1.002
17	83242	29.78899475811	1.002
17	83333	29.83899475811	1.002
17	83618	29.88899475811	1.002
17	83709	29.93899475811	1.002
17	83994	29.98899475811	1.002
17	84085	30.03899475811	1.002
17	84370	30.08899475811	1.002
17	84461	30.13899475811	1.002
17	84757	30.18899475811	1.002
17	84848	30.23899475811	1.002
17	85144	30.28899475811	1.002
17	85235	30.33899475811	1.002
17	85547	30.38899475811	1.002
17	85638	30.43899475811	1.002
17	85950	30.48899475811	1.002
17	86041	30.53899475811	1.002
17	86337	30.58899475811	1.002
17	86428	30.63899475811	1.002
17	86740	30.68899475811	1.002
17	86831	30.73899475811	1.002
17	87127	30.78899475811	1.002
17	87218	30.83899475811	1.002
17	87503	30.88899475811	1.002
17	87594	30.93899475811	1.002
17	87874	30.98899475811	1.002
17	87965	31.03899475811	1.002
17	88239	31.08899475811	1.002
17	88330	31.13899475811	1.002
17	88626	31.18899475811	1.002
17	88717	31.23899475811	1.002
17	89013	31.28899475811	1.002
17	89104	31.33899475811	1.002
17	89389	31.38899475811	1.002
17	89480	31.43899475811	1.002
17	89776	31.48899475811	1.002
17	89867	31.53899475811	1.002
17	90152	31.58899475811	1.002
17	90243	31.63899475811	1.002
17	90539	31.68899475811	1.002
17	90630	31.73899475811	1.002
17	90910	31.78899475811	1.002
17	91001	31.83899475811	1.002
17	91297	31.88899475811	1.002
17	91388	31.93899475811	1.002
17	91684	31.98899475811	1.002
17	91775	32.03899475811	1.002
17	92071	32.08899475811	1.002
17	92162	32.13899475811	1.002
17	92447	32.18899475811	1.002
17	92538	32.23899475811	1.002
17	92834	32.28899475811	1.002
17	92925	32.33899475811	1.002
17	93210	32.38899475811	1.002
17	93301	32.43899475811	1.002
17	93581	32.48899475811	1.002
17	93672	32.53899475811	1.002
17	93957	32.58899475811	1.002
17	94048	32.63899475811	1.002
17	94344	32.68899475811	1.002
17	94435	32.73899475811	1.002
17	94731	32.78899475811	1.002
17	94822	32.83899475811	1.002
17	95118	32.88899475811	1.002
17	95209	32.93899475811	1.002
17	95521	32.98899475811	1.002
17	95612	33.03899475811	1.002
17	95908	33.08899475811	1.002
17	95999	33.13899475811	1.002
17	96279	33.18899475811	1.002
17	96370	33.23899475811	1.002
17	96666	33.28899475811	1.002
17	96757	33.33899475811	1.002
17	97042	33.38899475811	1.002
17	97133	33.43899475811	1.002
17	97413	33.48899475811	1.002
17	97504	33.53899475811	1.002
17	97800	33.58899475811	1.002
17	97891	33.63899475811	1.002
17	98203	33.68899475811	1.002
17	98294	33.73899475811	1.002
17	98606	33.78899475811	1.002
17	98697	33.83899475811	1.002
17	99009	33.88899475811	1.002
17	99100	33.93899475811	1.002
17	99380	33.98899475811	1.002
17	99471	34.03899475811	1.002
17	99751	34.08899475811	1.002
17	99842	34.13899475811	1.002
17	100138	34.18899475811	1.002
17	100229	34.23899475811	1.002
17	100525	34.28899475811	1.002
17	100616	34.33899475811	1.002
17	100912	34.38899475811	1.002
17	101003	34.43899475811	1.002
17	101288	34.48899475811	1.002
17	101379	34.53899475811	1.002
17	101675	34.58899475811	1.002
17	101766	34.63899475811	1.002
17	102062	34.68899475811	1.002
17	102153	34.73899475811	1.002
17	102433	34.78899475811	1.002
17	102524	34.83899475811	1.002
17	102820	34.88899475811	1.002
17	102911	34.93899475811	1.002
17	103207	34.98899475811	1.002
17	103298	35.03899475811	1.002
17	103578	35.08899475811	1.002
17	103669	35.13899475811	1.002
17	103965	35.18899475811	1.002
17	104056	35.23899475811	1.002
17	104341	35.28899475811	1.002
17	104432	35.33899475811	1.002
17	104712	35.38899475811	1.002
17	104803	35.43899475811	1.002
17	105083	35.48899475811	1.002
17	105174	35.53899475811	1.002
17	105470	35.58899475811	1.002
17	105561	35.63899475811	1.002
17	105857	35.68899475811	1.002
17	105948	35.73899475811	1.002
17	106244	35.78899475811	1.002
17	106335	35.83899475811	1.002
17	106620	35.88899475811	1.002
17	106711	35.93899475811	1.002
17	107007	35.98899475811	1.002
17	107098	36.03899475811	1.002
17	107394	36.08899475811	1.002
17	107485	36.13899475811	1.002
17	107781	36.18899475811	1.002
17	107872	36.23899475811	1.002
17	108152	36.28899475811	1.002
17	108243	36.33899475811	1.002
17	108539	36.38899475811	1.002
17	108630	36.43899475811	1.002
17	108942	36.48899475811	1.002
17	109033	36.53899475811	1.002
17	109329	36.58899475811	1.002
17	109420	36.63899475811	1.002
17	109700	36.68899475811	1.002
17	109791	36.73899475811	1.002
17	110071	36.78899475811	1.002
17	110162	36.83899475811	1.002
17	110458	36.88899475811	1.002
17	110549	36.93899475811	1.002
17	110845	36.98899475811	1.002
17	110936	37.03899475811	1.002
17	111248	37.08899475811	1.002
17	111339	37.13899475811	1.002
17	111635	37.18899475811	1.002
17	111726	37.23899475811	1.002
17	112022	37.28899475811	1.002
17	112113	37.33899475811	1.002
17	112425	37.38899475811	1.002
17	112516	37.43899475811	1.002
17	112801	37.48899475811	1.002
17	112892	37.53899475811	1.002
17	113172	37.58899475811	1.002
17	113263	37.63899475811	1.002
17	113559	37.68899475811	1.002
17	113650	37.73899475811	1.002
17	113946	37.78899475811	1.002
17	114037	37.83899475811	1.002
17	114333	37.88899475811	1.002
17	114424	37.93899475811	1.002
17	114720	37.98899475811	1.002
17	114811	38.03899475811	1.002
17	115096	38.08899475811	1.002
17	115187	38.13899475811	1.002
17	115483	38.18899475811	1.002
17	115574	38.23899475811	1.002
17	115870	38.28899475811	1.002
17	115961	38.33899475811	1.002
17	116273	38.38899475811	1.002
17	116364	38.43899475811	1.002
17	116644	38.48899475811	1.002
17	116735	38.53899475811	1.002
17	117015	38.58899475811	1.002
17	117106	38.63899475811	1.002
17	117402	38.68899475811	1.002
17	117493	38.73899475811	1.002
17	117789	38.78899475811	1.002
17	117880	38.83899475811	1.002
17	118176	38.88899475811	1.002
17	118267	38.93899475811	1.002
17	118563	38.98899475811	1.002
17	118654	39.03899475811	1.002
17	118950	39.08899475811	1.002
17	119041	39.13899475811	1.002
17	119337	39.18899475811	1.002
17	119428	39.23899475811	1.002
17	119713	39.28899475811	1.002
17	119804	39.33899475811	1.002
17	120100	39.38899475811	1.002
17	120191	39.43899475811	1.002
17	120487	39.48899475811	1.002
17	120578	39.53899475811	1.002
17	120890	39.58899475811	1.002
17	120981	39.63899475811	1.002
17	121261	39.68899475811	1.002
17	121352	39.73899475811	1.002
17	121637	39.78899475811	1.002
17	121728	39.83899475811	1.002
17	122024	39.88899475811	1.002
17	122115	39.93899475811	1.002
17	122395	39.98899475811	1.002
17	122486	40.03899475811	1.002
17	122782	40.08899475811	1.002
17	122873	40.13899475811	1.002
17	123169	40.18899475811	1.002
17	123260	40.23899475811	1.002
17	123572	40.28899475811	1.002
17	123663	40.33899475811	1.002
17	123959	40.38899475811	1.002
17	124050	40.43899475811	1.002
17	124346	40.48899475811	1.002
17	124437	40.53899475811	1.002
17	124749	40.58899475811	1.002
17	124840	40.63899475811	1.002
17	125120	40.68899475811	1.002
17	125211	40.73899475811	1.002
17	125507	40.78899475811	1.002
17	125598	40.83899475811	1.002
17	125894	40.88899475811	1.002
17	125985	40.93899475811	1.002
17	126297	40.98899475811	1.002
17	126388	41.03899475811	1.002
17	126668	41.08899475811	1.002
17	126759	41.13899475811	1.002
17	127044	41.18899475811	1.002
17	127135	41.23899475811	1.002
17	127431	41.28899475811	1.002
17	127522	41.33899475811	1.002
17	127818	41.38899475811	1.002
17	127909	41.43899475811	1.002
17	128205	41.48899475811	1.002
17	128296	41.53899475811	1.002
17	128592	41.58899475811	1.002
17	128683	41.63899475811	1.002
17	128968	41.68899475811	1.002
17	129059	41.73899475811	1.002
17	129355	41.78899475811	1.002
17	129446	41.83899475811	1.002
17	129742	41.88899475811	1.002
17	129833	41.93899475811	1.002
17	130113	41.98899475811	1.002
17	130204	42.03899475811	1.002
17	130500	42.08899475811	1.002
17	130591	42.13899475811	1.002
17	130887	42.18899475811	1.002
17	130978	42.23899475811	1.002
17	131258	42.28899475811	1.002
17	131349	42.33899475811	1.002
17	131634	42.38899475811	1.002
17	131725	42.43899475811	1.002
17	132021	42.48899475811	1.002
17	132112	42.53899475811	1.002
17	132424	42.58899475811	1.002
17	132515	42.63899475811	1.002
17	132811	42.68899475811	1.002
17	132902	42.73899475811	1.002
17	133182	42.78899475811	1.002
17	133273	42.83899475811	1.002
17	133569	42.88899475811	1.002
17	133660	42.93899475811	1.002
17	133956	42.98899475811	1.002
17	134047	43.03899475811	1.002
17	134359	43.08899475811	1.002
17	134450	43.13899475811	1.002
17	134735	43.18899475811	1.002
17	134826	43.23899475811	1.002
17	135122	43.28899475811	1.002
17	135213	43.33899475811	1.002
17	135498	43.38899475811	1.002
17	135589	43.43899475811	1.002
17	135885	43.48899475811	1.002
17	135976	43.53899475811	1.002
17	136256	43.58899475811	1.002
17	136347	43.63899475811	1.002
17	136643	43.68899475811	1.002
17	136734	43.73899475811	1.002
17	137030	43.78899475811	1.002
17	137121	43.83899475811	1.002
17	137406	43.88899475811	1.002
17	137497	43.93899475811	1.002
17	137793	43.98899475811	1.002
17	137884	44.03899475811	1.002
17	138169	44.08899475811	1.002
17	138260	44.13899475811	1.002
17	138556	44.18899475811	1.002
17	138647	44.23899475811	1.002
17	138927	44.28899475811	1.002
17	139018	44.33899475811	1.002
17	139298	44.38899475811	1.002
17	139389	44.43899475811	1.002
17	139685	44.48899475811	1.002
17	139776	44.53899475811	1.002
17	140072	44.58899475811	1.002
17	140163	44.63899475811	1.002
17	140448	44.68899475811	1.002
17	140539	44.73899475811	1.002
17	140835	44.78899475811	1.002
17	140926	44.83899475811	1.002
17	141222	44.88899475811	1.002
17	141313	44.93899475811	1.002
17	141609	44.98899475811	1.002
17	141700	45.03899475811	1.002
17	141980	45.08899475811	1.002
17	142071	45.13899475811	1.002
17	142367	45.18899475811	1.002
17	142458	45.23899475811	1.002
17	142738	45.28899475811	1.002
17	142829	45.33899475811	1.002
17	143109	45.38899475811	1.002
17	143200	45.43899475811	1.002
17	143485	45.48899475811	1.002
17	143576	45.53899475811	1.002
17	143872	45.58899475811	1.002
17	143963	45.63899475811	1.002
17	144259	45.68899475811	1.002
17	144350	45.73899475811	1.002
17	144630	45.78899475811	1.002
17	144721	45.83899475811	1.002
17	145017	45.88899475811	1.002
17	145108	45.93899475811	1.002
17	145388	45.98899475811	1.002
17	145479	46.03899475811	1.002
17	145775	46.08899475811	1.002
17	145866	46.13899475811	1.002
17	146178	46.18899475811	1.002
17	146269	46.23899475811	1.002
17	146581	46.28899475811	1.002
17	146672	46.33899475811	1.002
17	146957	46.38899475811	1.002
17	147048	46.43899475811	1.002
17	147344	46.48899475811	1.002
17	147435	46.53899475811	1.002
17	147731	46.58899475811	1.002
17	147822	46.63899475811	1.002
17	148102	46.68899475811	1.002
17	148193	46.73899475811	1.002
17	148489	46.78899475811	1.002
17	148580	46.83899475811	1.002
17	148860	46.88899475811	1.002
17	148951	46.93899475811	1.002
17	149231	46.98899475811	1.002
17	149322	47.03899475811	1.002
17	149618	47.08899475811	1.002
17	149709	47.13899475811	1.002
17	150005	47.18899475811	1.002
17	150096	47.23899475811	1.002
17	150392	47.28899475811	1.002
17	150483	47.33899475811	1.002
17	150768	47.38899475811	1.002
17	150859	47.43899475811	1.002
17	151155	47.48899475811	1.002
17	151246	47.53899475811	1.002
17	151526	47.58899475811	1.002
17	151617	47.63899475811	1.002
17	151897	47.68899475811	1.002
17	151988	47.73899475811	1.002
17	152284	47.78899475811	1.002
17	152375	47.83899475811	1.002
17	152671	47.88899475811	1.002
17	152762	47.93899475811	1.002
17	153058	47.98899475811	1.002
17	153149	48.03899475811	1.002
17	153445	48.08899475811	1.002
17	153536	48.13899475811	1.002
17	153848	48.18899475811	1.002
17	153939	48.23899475811	1.002
17	154235	48.28899475811	1.002
17	154326	48.33899475811	1.002
17	154622	48.38899475811	1.002
17	154713	48.43899475811	1.002
17	154998	48.48899475811	1.002
17	155089	48.53899475811	1.002
17	155385	48.58899475811	1.002
17	155476	48.63899475811	1.002
17	155761	48.68899475811	1.002
17	155852	48.73899475811	1.002
17	156137	48.78899475811	1.002
17	156228	48.83899475811	1.002
17	156540	48.88899475811	1.002
17	156631	48.93899475811	1.002
17	156943	48.98899475811	1.002
17	157034	49.03899475811	1.002
17	157314	49.08899475811	1.002
17	157405	49.13899475811	1.002
17	157701	49.18899475811	1.002
17	157792	49.23899475811	1.002
17	158066	49.28899475811	1.002
17	158157	49.33899475811	1.002
17	158453	49.38899475811	1.002
17	158544	49.43899475811	1.002
17	158840	49.48899475811	1.002
17	158931	49.53899475811	1.002
17	159211	49.58899475811	1.002
17	159302	49.63899475811	1.002
17	159614	49.68899475811	1.002
17	159705	49.73899475811	1.002
17	160017	49.78899475811	1.002
17	160108	49.83899475811	1.002
17	160393	49.88899475811	1.002
17	160484	49.93899475811	1.002
17	160780	49.98899475811	1.002
17	160871	50.03899475811	1.002
17	161156	50.08899475811	1.002
17	161247	50.13899475811	1.002
17	161543	50.18899475811	1.002
17	161634	50.23899475811	1.002
17	161930	50.28899475811	1.002
17	162021	50.33899475811	1.002
17	162333	50.38899475811	1.002
17	162424	50.43899475811	1.002
17	162709	50.48899475811	1.002
17	162800	50.53899475811	1.002
17	163096	50.58899475811	1.002
17	163187	50.63899475811	1.002
17	163483	50.68899475811	1.002
17	163574	50.73899475811	1.002
17	163859	50.78899475811	1.002
17	163950	50.83899475811	1.002
17	164246	50.88899475811	1.002
17	164337	50.93899475811	1.002
17	164633	50.98899475811	1.002
17	164724	51.03899475811	1.002
17	165020	51.08899475811	1.002
17	165111	51.13899475811	1.002
17	165407	51.18899475811	1.002
17	165498	51.23899475811	1.002
17	165810	51.28899475811	1.002
17	165901	51.33899475811	1.002
17	166197	51.38899475811	1.002
17	166288	51.43899475811	1.002
17	166584	51.48899475811	1.002
17	166675	51.53899475811	1.002
17	166960	51.58899475811	1.002
17	167051	51.63899475811	1.002
17	167347	51.68899475811	1.002
17	167438	51.73899475811	1.002
17	167723	51.78899475811	1.002
17	167814	51.83899475811	1.002
17	168094	51.88899475811	1.002
17	168185	51.93899475811	1.002
17	168470	51.98899475811	1.002
17	168561	52.03899475811	1.002
17	168841	52.08899475811	1.002
17	168932	52.13899475811	1.002
17	169217	52.18899475811	1.002
17	169308	52.23899475811	1.002
17	169593	52.28899475811	1.002
17	169684	52.33899475811	1.002
17	169980	52.38899475811	1.002
17	170071	52.43899475811	1.002
17	170351	52.48899475811	1.002
17	170442	52.53899475811	1.002
17	170738	52.58899475811	1.002
17	170829	52.63899475811	1.002
17	171114	52.68899475811	1.002
17	171205	52.73899475811	1.002
17	171501	52.78899475811	1.002
17	171592	52.83899475811	1.002
17	171888	52.88899475811	1.002
17	171979	52.93899475811	1.002
17	172275	52.98899475811	1.002
17	172366	53.03899475811	1.002
17	172662	53.08899475811	1.002
17	172753	53.13899475811	1.002
17	173049	53.18899475811	1.002
17	173140	53.23899475811	1.002
17	173420	53.28899475811	1.002
17	173511	53.33899475811	1.002
17	173807	53.38899475811	1.002
17	173898	53.43899475811	1.002
17	174194	53.48899475811	1.002
17	174285	53.53899475811	1.002
17	174581	53.58899475811	1.002
17	174672	53.63899475811	1.002
17	174957	53.68899475811	1.002
17	175048	53.73899475811	1.002
17	175344	53.78899475811	1.002
17	175435	53.83899475811	1.002
17	175731	53.88899475811	1.002
17	175822	53.93899475811	1.002
17	176107	53.98899475811	1.002
17	176198	54.03899475811	1.002
17	176494	54.08899475811	1.002
17	176585	54.13899475811	1.002
17	176897	54.18899475811	1.002
17	176988	54.23899475811	1.002
17	177284	54.28899475811	1.002
17	177375	54.33899475811	1.002
17	177671	54.38899475811	1.002
17	177762	54.43899475811	1.002
17	178058	54.48899475811	1.002
17	178149	54.53899475811	1.002
17	178445	54.58899475811	1.002
17	178536	54.63899475811	1.002
17	178832	54.68899475811	1.002
17	178923	54.73899475811	1.002
17	179203	54.78899475811	1.002
17	179294	54.83899475811	1.002
17	179590	54.88899475811	1.002
17	179681	54.93899475811	1.002
17	179961	54.98899475811	1.002
17	180052	55.03899475811	1.002
17	180348	55.08899475811	1.002
17	180439	55.13899475811	1.002
17	180735	55.18899475811	1.002
17	180826	55.23899475811	1.002
17	181138	55.28899475811	1.002
17	181229	55.33899475811	1.002
17	181509	55.38899475811	1.002
17	181600	55.43899475811	1.002
17	181896	55.48899475811	1.002
17	181987	55.53899475811	1.002
17	182283	55.58899475811	1.002
17	182374	55.63899475811	1.002
17	182670	55.68899475811	1.002
17	182761	55.73899475811	1.002
17	183046	55.78899475811	1.002
17	183137	55.83899475811	1.002
17	183433	55.88899475811	1.002
17	183524	55.93899475811	1.002
17	183809	55.98899475811	1.002
17	183900	56.03899475811	1.002
17	184196	56.08899475811	1.002
17	184287	56.13899475811	1.002
17	184567	56.18899475811	1.002
17	184658	56.23899475811	1.002
17	184943	56.28899475811	1.002
17	185034	56.33899475811	1.002
17	185330	56.38899475811	1.002
17	185421	56.43899475811	1.002
17	185706	56.48899475811	1.002
17	185797	56.53899475811	1.002
17	186109	56.58899475811	1.002
17	186200	56.63899475811	1.002
17	186496	56.68899475811	1.002
17	186587	56.73899475811	1.002
17	186872	56.78899475811	1.002
17	186963	56.83899475811	1.002
17	187259	56.88899475811	1.002
17	187350	56.93899475811	1.002
17	187630	56.98899475811	1.002
17	187721	57.03899475811	1.002
17	188006	57.08899475811	1.002
17	188097	57.13899475811	1.002
17	188382	57.18899475811	1.002
17	188473	57.23899475811	1.002
17	188758	57.28899475811	1.002
17	188849	57.33899475811	1.002
17	189145	57.38899475811	1.002
17	189236	57.43899475811	1.002
17	189516	57.48899475811	1.002
17	189607	57.53899475811	1.002
17	189903	57.58899475811	1.002
17	189994	57.63899475811	1.002
17	190290	57.68899475811	1.002
17	190381	57.73899475811	1.002
17	190693	57.78899475811	1.002
17	190784	57.83899475811	1.002
17	191080	57.88899475811	1.002
17	191171	57.93899475811	1.002
17	191467	57.98899475811	1.002
17	191558	58.03899475811	1.002
17	191843	58.08899475811	1.002
17	191934	58.13899475811	1.002
17	192230	58.18899475811	1.002
17	192321	58.23899475811	1.002
17	192617	58.28899475811	1.002
17	192708	58.33899475811	1.002
17	192988	58.38899475811	1.002
17	193079	58.43899475811	1.002
17	193375	58.48899475811	1.002
17	193466	58.53899475811	1.002
17	193751	58.58899475811	1.002
17	193842	58.63899475811	1.002
17	194138	58.68899475811	1.002
17	194229	58.73899475811	1.002
17	194525	58.78899475811	1.002
17	194616	58.83899475811	1.002
17	194912	58.88899475811	1.002
17	195003	58.93899475811	1.002
17	195299	58.98899475811	1.002
17	195390	59.03899475811	1.002
17	195686	59.08899475811	1.002
17	195777	59.13899475811	1.002
17	196073	59.18899475811	1.002
17	196164	59.23899475811	1.002
17	196449	59.28899475811	1.002
17	196540	59.33899475811	1.002
17	196836	59.38899475811	1.002
17	196927	59.43899475811	1.002
17	197223	59.48899475811	1.002
17	197314	59.53899475811	1.002
17	197610	59.58899475811	1.002
17	197701	59.63899475811	1.002
17	198013	59.68899475811	1.002
17	198104	59.73899475811	1.002
17	198400	59.78899475811	1.002
17	198491	59.83899475811	1.002
17	198787	59.88899475811	1.002
17	198878	59.93899475811	1.002
17	199174	59.98899475811	1.002
17	199265	60.03899475811	1.002
17	199561	60.08899475811	1.002
17	199652	60.13899475811	1.002
17	199932	60.18899475811	1.002
17	200023	60.23899475811	1.002
17	200319	60.28899475811	1.002
17	200410	60.33899475811	1.002
17	200690	60.38899475811	1.002
17	200781	60.43899475811	1.002
17	201077	60.48899475811	1.002
17	201168	60.53899475811	1.002
17	201480	60.58899475811	1.002
17	201571	60.63899475811	1.002
17	201856	60.68899475811	1.002
17	201947	60.73899475811	1.002
17	202227	60.78899475811	1.002
17	202318	60.83899475811	1.002
17	202614	60.88899475811	1.002
17	202705	60.93899475811	1.002
17	203001	60.98899475811	1.002
17	203092	61.03899475811	1.002
17	203377	61.08899475811	1.002
17	203468	61.13899475811	1.002
17	203780	61.18899475811	1.002
17	203871	61.23899475811	1.002
17	204167	61.28899475811	1.002
17	204258	61.33899475811	1.002
17	204543	61.38899475811	1.002
17	204634	61.43899475811	1.002
17	204946	61.48899475811	1.002
17	205037	61.53899475811	1.002
17	205317	61.58899475811	1.002
16	52	1.08899475811	1
16	70	1.13899475811	2
16	87	1.18899475811	3
16	105	1.23899475811	4
16	122	1.28899475811	5
16	140	1.33899475811	6
16	157	1.38899475811	7
16	175	1.43899475811	8
16	192	1.48899475811	9
16	210	1.53899475811	10
16	227	1.58899475811	11
16	245	1.63899475811	12
16	262	1.68899475811	13
16	280	1.73899475811	14
16	297	1.78899475811	15
16	315	1.83899475811	16
16	332	1.88899475811	17
16	350	1.93899475811	18
16	367	1.98899475811	19
16	385	2.03899475811	20
16	402	2.08899475811	21
16	420	2.13899475811	22
16	437	2.18899475811	23
16	455	2.23899475811	24
16	472	2.28899475811	25
16	490	2.33899475811	26
16	507	2.38899475811	27
16	525	2.43899475811	28
16	542	2.48899475811	29
16	560	2.53899475811	30
16	577	2.58899475811	31
16	595	2.63899475811	32
16	612	2.68899475811	33
16	630	2.73899475811	34
16	647	2.78899475811	35
16	665	2.83899475811	36
16	682	2.88899475811	37
16	700	2.93899475811	38
16	717	2.98899475811	39
16	735	3.03899475811	40
16	752	3.08899475811	41
16	770	3.13899475811	42
16	794	3.18899475811	43
16	819	3.23899475811	44
16	843	3.28899475811	45
16	868	3.33899475811	46
16	892	3.38899475811	47
16	917	3.43899475811	48
16	941	3.48899475811	49
16	966	3.53899475811	50
16	990	3.58899475811	51
16	1015	3.63899475811	52
16	1039	3.68899475811	53
16	1064	3.73899475811	54
16	1088	3.78899475811	55
16	1113	3.83899475811	56
16	1137	3.88899475811	57
16	1183	3.93899475811	59
16	1228	3.98899475811	61
16	1274	4.03899475811	63
16	1319	4.08899475811	65
16	1365	4.13899475811	67
16	1410	4.18899475811	69
16	1456	4.23899475811	71
16	1501	4.28899475811	73
16	1547	4.33899475811	75
16	1592	4.38899475811	77
16	1638	4.43899475811	79
16	1683	4.48899475811	81
16	1729	4.53899475811	83
16	1774	4.58899475811	85
16	1820	4.63899475811	87
16	1865	4.68899475811	89
16	1911	4.73899475811	91
16	1956	4.78899475811	93
16	2002	4.83899475811	95
16	2047	4.88899475811	97
16	2093	4.93899475811	99
16	2138	4.98899475811	101
16	2184	5.03899475811	103
16	2229	5.08899475811	105
16	2275	5.13899475811	107
16	2320	5.18899475811	109
16	2366	5.23899475811	111
16	2411	5.28899475811	113
16	2457	5.33899475811	115
16	2502	5.38899475811	117
16	2548	5.43899475811	119
16	2593	5.48899475811	121
16	2639	5.53899475811	123
16	2684	5.58899475811	125
16	2730	5.63899475811	127
16	2775	5.68899475811	129
16	2821	5.73899475811	131
16	2866	5.78899475811	133
16	2912	5.83899475811	135
16	2957	5.88899475811	137
16	3003	5.93899475811	139
16	3048	5.98899475811	141
16	3094	6.03899475811	143
16	3139	6.08899475811	145
16	3185	6.13899475811	147
16	3243	6.18899475811	149
16	3302	6.23899475811	151
16	3360	6.28899475811	153
16	3419	6.33899475811	155
16	3504	6.38899475811	158
16	3565	6.43899475811	161
16	3675	6.48899475811	164
16	3736	6.53899475811	167
16	3846	6.58899475811	170
16	3907	6.63899475811	173
16	4017	6.68899475811	176
16	4078	6.73899475811	179
16	4178	6.78899475811	182
16	4239	6.83899475811	185
16	4349	6.88899475811	188
16	4410	6.93899475811	191
16	4520	6.98899475811	194
16	4581	7.03899475811	197
16	4691	7.08899475811	200
16	4752	7.13899475811	203
16	4862	7.18899475811	206
16	4923	7.23899475811	209
16	5033	7.28899475811	212
16	5094	7.33899475811	215
16	5204	7.38899475811	218
16	5265	7.43899475811	221
16	5375	7.48899475811	224
16	5436	7.53899475811	227
16	5546	7.58899475811	230
16	5607	7.63899475811	233
16	5707	7.68899475811	236
16	5768	7.73899475811	239
16	5878	7.78899475811	242
16	5939	7.83899475811	245
16	6049	7.88899475811	248
16	6110	7.93899475811	251
16	6220	7.98899475811	254
16	6281	8.03899475811	257
16	6391	8.08899475811	260
16	6452	8.13899475811	263
16	6552	8.18899475811	266
16	6613	8.23899475811	269
16	6723	8.28899475811	272
16	6784	8.33899475811	275
16	6894	8.38899475811	278
16	6955	8.43899475811	281
16	7065	8.48899475811	284
16	7126	8.53899475811	287
16	7236	8.58899475811	290
16	7297	8.63899475811	293
16	7407	8.68899475811	296
16	7468	8.73899475811	299
16	7578	8.78899475811	302
16	7639	8.83899475811	305
16	7749	8.88899475811	308
16	7810	8.93899475811	311
16	7920	8.98899475811	314
16	7981	9.03899475811	317
16	8091	9.08899475811	320
16	8152	9.13899475811	323
16	8307	9.18899475811	327
16	8383	9.23899475811	331
16	8570	9.28899475811	335
16	8646	9.33899475811	339
16	8823	9.38899475811	343
16	8899	9.43899475811	347
16	9085	9.48899475811	351
16	9161	9.53899475811	355
16	9347	9.58899475811	359
16	9423	9.63899475811	363
16	9609	9.68899475811	367
16	9685	9.73899475811	371
16	9884	9.78899475811	375
16	9960	9.83899475811	379
16	10146	9.88899475811	383
16	10222	9.93899475811	387
16	10421	9.98899475811	391
16	10497	10.03899475811	395
16	10683	10.08899475811	399
16	10759	10.13899475811	403
16	10958	10.18899475811	407
16	11034	10.23899475811	411
16	11220	10.28899475811	415
16	11296	10.33899475811	419
16	11495	10.38899475811	423
16	11571	10.43899475811	427
16	11757	10.48899475811	431
16	11833	10.53899475811	435
16	12019	10.58899475811	439
16	12095	10.63899475811	443
16	12281	10.68899475811	447
16	12357	10.73899475811	451
16	12556	10.78899475811	455
16	12632	10.83899475811	459
16	12831	10.88899475811	463
16	12907	10.93899475811	467
16	13106	10.98899475811	471
16	13182	11.03899475811	475
16	13368	11.08899475811	479
16	13444	11.13899475811	483
16	13630	11.18899475811	487
16	13706	11.23899475811	491
16	13892	11.28899475811	495
16	13968	11.33899475811	499
16	14167	11.38899475811	503
16	14243	11.43899475811	507
16	14429	11.48899475811	511
16	14505	11.53899475811	515
16	14691	11.58899475811	519
16	14767	11.63899475811	523
16	14966	11.68899475811	527
16	15042	11.73899475811	531
16	15228	11.78899475811	535
16	15304	11.83899475811	539
16	15503	11.88899475811	543
16	15579	11.93899475811	547
16	15778	11.98899475811	551
16	15854	12.03899475811	555
16	16040	12.08899475811	559
16	16116	12.13899475811	563
16	16352	12.18899475811	567
16	16441	12.23899475811	571
16	16661	12.28899475811	575
16	16750	12.33899475811	579
16	16986	12.38899475811	583
16	17075	12.43899475811	587
16	17295	12.48899475811	591
16	17384	12.53899475811	595
16	17604	12.58899475811	599
16	17693	12.63899475811	603
16	17929	12.68899475811	607
16	18018	12.73899475811	611
16	18254	12.78899475811	615
16	18343	12.83899475811	619
16	18579	12.88899475811	623
16	18668	12.93899475811	627
16	18943	12.98899475811	632
16	19034	13.03899475811	637
16	19331	13.08899475811	642
16	19422	13.13899475811	647
16	19718	13.18899475811	652
16	19809	13.23899475811	657
16	20094	13.28899475811	662
16	20185	13.33899475811	667
16	20482	13.38899475811	672
16	20573	13.43899475811	677
16	20869	13.48899475811	682
16	20960	13.53899475811	687
16	21234	13.58899475811	692
16	21325	13.63899475811	697
16	21610	13.68899475811	702
16	21701	13.73899475811	707
16	21997	13.78899475811	712
16	22088	13.83899475811	717
16	22373	13.88899475811	722
16	22464	13.93899475811	727
16	22776	13.98899475811	732
16	22867	14.03899475811	737
16	23147	14.08899475811	742
16	23238	14.13899475811	747
16	23534	14.18899475811	752
16	23625	14.23899475811	757
16	23905	14.28899475811	762
16	23996	14.33899475811	767
16	24281	14.38899475811	772
16	24372	14.43899475811	777
16	24652	14.48899475811	782
16	24743	14.53899475811	787
16	25028	14.58899475811	792
16	25119	14.63899475811	797
16	25404	14.68899475811	802
16	25495	14.73899475811	807
16	25780	14.78899475811	812
16	25871	14.83899475811	817
16	26167	14.88899475811	822
16	26258	14.93899475811	827
16	26554	14.98899475811	832
16	26645	15.03899475811	837
16	26941	15.08899475811	842
16	27032	15.13899475811	847
16	27317	15.18899475811	852
16	27408	15.23899475811	857
16	27704	15.28899475811	862
16	27795	15.33899475811	867
16	28107	15.38899475811	872
16	28198	15.43899475811	877
16	28510	15.48899475811	882
16	28601	15.53899475811	887
16	28886	15.58899475811	892
16	28977	15.63899475811	897
16	29273	15.68899475811	902
16	29364	15.73899475811	907
16	29644	15.78899475811	912
16	29735	15.83899475811	917
16	30015	15.88899475811	922
16	30106	15.93899475811	927
16	30386	15.98899475811	932
16	30477	16.03899475811	937
16	30762	16.08899475811	942
16	30853	16.13899475811	947
16	31138	16.18899475811	952
16	31229	16.23899475811	957
16	31514	16.28899475811	962
16	31605	16.33899475811	967
16	31901	16.38899475811	972
16	31992	16.43899475811	977
16	32304	16.48899475811	982
16	32395	16.53899475811	987
16	32691	16.58899475811	992
16	32782	16.63899475811	997
16	33078	16.68899475811	1002
16	33169	16.73899475811	1007
16	33449	16.78899475811	1012
16	33540	16.83899475811	1017
16	33852	16.88899475811	1022
16	33943	16.93899475811	1027
16	34239	16.98899475811	1032
16	34330	17.03899475811	1037
16	34626	17.08899475811	1042
16	34717	17.13899475811	1047
16	35013	17.18899475811	1052
16	35104	17.23899475811	1057
16	35400	17.28899475811	1062
16	35491	17.33899475811	1067
16	35771	17.38899475811	1072
16	35862	17.43899475811	1077
16	36147	17.48899475811	1082
16	36238	17.53899475811	1087
16	36523	17.58899475811	1092
16	36614	17.63899475811	1097
16	36910	17.68899475811	1102
16	37001	17.73899475811	1107
16	37275	17.78899475811	1112
16	37366	17.83899475811	1117
16	37662	17.88899475811	1122
16	37753	17.93899475811	1127
16	38049	17.98899475811	1132
16	38140	18.03899475811	1137
16	38436	18.08899475811	1142
16	38527	18.13899475811	1147
16	38823	18.18899475811	1152
16	38914	18.23899475811	1157
16	39226	18.28899475811	1162
16	39317	18.33899475811	1167
16	39613	18.38899475811	1172
16	39704	18.43899475811	1177
16	40000	18.48899475811	1182
16	40091	18.53899475811	1187
16	40387	18.58899475811	1192
16	40478	18.63899475811	1197
16	40790	18.68899475811	1202
16	40881	18.73899475811	1207
16	41177	18.78899475811	1212
16	41268	18.83899475811	1217
16	41564	18.88899475811	1222
16	41655	18.93899475811	1227
16	41967	18.98899475811	1232
16	42058	19.03899475811	1237
16	42354	19.08899475811	1242
16	42445	19.13899475811	1247
16	42725	19.18899475811	1252
16	42816	19.23899475811	1257
16	43096	19.28899475811	1262
16	43187	19.33899475811	1267
16	43467	19.38899475811	1272
16	43558	19.43899475811	1277
16	43854	19.48899475811	1282
16	43945	19.53899475811	1287
16	44230	19.58899475811	1292
16	44321	19.63899475811	1297
16	44617	19.68899475811	1302
16	44708	19.73899475811	1307
16	45004	19.78899475811	1312
16	45095	19.83899475811	1317
16	45380	19.88899475811	1322
16	45471	19.93899475811	1327
16	45751	19.98899475811	1332
16	45842	20.03899475811	1337
16	46127	20.08899475811	1342
16	46218	20.13899475811	1347
16	46503	20.18899475811	1352
16	46594	20.23899475811	1357
16	46890	20.28899475811	1362
16	46981	20.33899475811	1367
16	47277	20.38899475811	1372
16	47368	20.43899475811	1377
16	47664	20.48899475811	1382
16	47755	20.53899475811	1387
16	48051	20.58899475811	1392
16	48142	20.63899475811	1397
16	48427	20.68899475811	1402
16	48518	20.73899475811	1407
16	48814	20.78899475811	1412
16	48905	20.83899475811	1417
16	49185	20.88899475811	1422
16	49276	20.93899475811	1427
16	49572	20.98899475811	1432
16	49663	21.03899475811	1437
16	49948	21.08899475811	1442
16	50039	21.13899475811	1447
16	50324	21.18899475811	1452
16	50415	21.23899475811	1457
16	50700	21.28899475811	1462
16	50791	21.33899475811	1467
16	51087	21.38899475811	1472
16	51178	21.43899475811	1477
16	51474	21.48899475811	1482
16	51565	21.53899475811	1487
16	51861	21.58899475811	1492
16	51952	21.63899475811	1497
16	52232	21.68899475811	1502
16	52323	21.73899475811	1507
16	52619	21.78899475811	1512
16	52710	21.83899475811	1517
16	53006	21.88899475811	1522
16	53097	21.93899475811	1527
16	53393	21.98899475811	1532
16	53484	22.03899475811	1537
16	53769	22.08899475811	1542
16	53860	22.13899475811	1547
16	54156	22.18899475811	1552
16	54247	22.23899475811	1557
16	54532	22.28899475811	1562
16	54623	22.33899475811	1567
16	54903	22.38899475811	1572
16	54994	22.43899475811	1577
16	55290	22.48899475811	1582
16	55381	22.53899475811	1587
16	55666	22.58899475811	1592
16	55757	22.63899475811	1597
16	56042	22.68899475811	1602
16	56133	22.73899475811	1607
16	56429	22.78899475811	1612
16	56520	22.83899475811	1617
16	56805	22.88899475811	1622
16	56896	22.93899475811	1627
16	57208	22.98899475811	1632
16	57299	23.03899475811	1637
16	57595	23.08899475811	1642
16	57686	23.13899475811	1647
16	57966	23.18899475811	1652
16	58057	23.23899475811	1657
16	58337	23.28899475811	1662
16	58428	23.33899475811	1667
16	58713	23.38899475811	1672
16	58804	23.43899475811	1677
16	59100	23.48899475811	1682
16	59191	23.53899475811	1687
16	59476	23.58899475811	1692
16	59567	23.63899475811	1697
16	59863	23.68899475811	1702
16	59954	23.73899475811	1707
16	60250	23.78899475811	1712
16	60341	23.83899475811	1717
16	60637	23.88899475811	1722
16	60728	23.93899475811	1727
16	61013	23.98899475811	1732
16	61104	24.03899475811	1737
16	61400	24.08899475811	1742
16	61491	24.13899475811	1747
16	61771	24.18899475811	1752
16	61862	24.23899475811	1757
16	62142	24.28899475811	1762
16	62233	24.33899475811	1767
16	62529	24.38899475811	1772
16	62620	24.43899475811	1777
16	62894	24.48899475811	1782
16	62985	24.53899475811	1787
16	63265	24.58899475811	1792
16	63356	24.63899475811	1797
16	63652	24.68899475811	1802
16	63743	24.73899475811	1807
16	64039	24.78899475811	1812
16	64130	24.83899475811	1817
16	64426	24.88899475811	1822
16	64517	24.93899475811	1827
16	64813	24.98899475811	1832
16	64904	25.03899475811	1837
16	65200	25.08899475811	1842
16	65291	25.13899475811	1847
16	65565	25.18899475811	1852
16	65656	25.23899475811	1857
16	65941	25.28899475811	1862
16	66032	25.33899475811	1867
16	66328	25.38899475811	1872
16	66419	25.43899475811	1877
16	66715	25.48899475811	1882
16	66806	25.53899475811	1887
16	67091	25.58899475811	1892
16	67182	25.63899475811	1897
16	67462	25.68899475811	1902
16	67553	25.73899475811	1907
16	67849	25.78899475811	1912
16	67940	25.83899475811	1917
16	68236	25.88899475811	1922
16	68327	25.93899475811	1927
16	68623	25.98899475811	1932
16	68714	26.03899475811	1937
16	68999	26.08899475811	1942
16	69090	26.13899475811	1947
16	69370	26.18899475811	1952
16	69461	26.23899475811	1957
16	69757	26.28899475811	1962
16	69848	26.33899475811	1967
16	70144	26.38899475811	1972
16	70235	26.43899475811	1977
16	70531	26.48899475811	1982
16	70622	26.53899475811	1987
16	70918	26.58899475811	1992
16	71009	26.63899475811	1997
16	71294	26.68899475811	2002
16	71385	26.73899475811	2007
16	71659	26.78899475811	2012
16	71750	26.83899475811	2017
16	72046	26.88899475811	2022
16	72137	26.93899475811	2027
16	72433	26.98899475811	2032
16	72524	27.03899475811	2037
16	72820	27.08899475811	2042
16	72911	27.13899475811	2047
16	73191	27.18899475811	2052
16	73282	27.23899475811	2057
16	73578	27.28899475811	2062
16	73669	27.33899475811	2067
16	73949	27.38899475811	2072
16	74040	27.43899475811	2077
16	74320	27.48899475811	2082
16	74411	27.53899475811	2087
16	74691	27.58899475811	2092
16	74782	27.63899475811	2097
16	75078	27.68899475811	2102
16	75169	27.73899475811	2107
16	75465	27.78899475811	2112
16	75556	27.83899475811	2117
16	75852	27.88899475811	2122
16	75943	27.93899475811	2127
16	76239	27.98899475811	2132
16	76330	28.03899475811	2137
16	76642	28.08899475811	2142
16	76733	28.13899475811	2147
16	77029	28.18899475811	2152
16	77120	28.23899475811	2157
16	77405	28.28899475811	2162
16	77496	28.33899475811	2167
16	77792	28.38899475811	2172
16	77883	28.43899475811	2177
16	78195	28.48899475811	2182
16	78286	28.53899475811	2187
16	78582	28.58899475811	2192
16	78673	28.63899475811	2197
16	78969	28.68899475811	2202
16	79060	28.73899475811	2207
16	79356	28.78899475811	2212
16	79447	28.83899475811	2217
16	79743	28.88899475811	2222
16	79834	28.93899475811	2227
16	80130	28.98899475811	2232
16	80221	29.03899475811	2237
16	80517	29.08899475811	2242
16	80608	29.13899475811	2247
16	80904	29.18899475811	2252
16	80995	29.23899475811	2257
16	81291	29.28899475811	2262
16	81382	29.33899475811	2267
16	81678	29.38899475811	2272
16	81769	29.43899475811	2277
16	82081	29.48899475811	2282
16	82172	29.53899475811	2287
16	82468	29.58899475811	2292
16	82559	29.63899475811	2297
16	82855	29.68899475811	2302
16	82946	29.73899475811	2307
16	83242	29.78899475811	2312
16	83333	29.83899475811	2317
16	83618	29.88899475811	2322
16	83709	29.93899475811	2327
16	83994	29.98899475811	2332
16	84085	30.03899475811	2337
16	84370	30.08899475811	2342
16	84461	30.13899475811	2347
16	84757	30.18899475811	2352
16	84848	30.23899475811	2357
16	85144	30.28899475811	2362
16	85235	30.33899475811	2367
16	85547	30.38899475811	2372
16	85638	30.43899475811	2377
16	85950	30.48899475811	2382
16	86041	30.53899475811	2387
16	86337	30.58899475811	2392
16	86428	30.63899475811	2397
16	86740	30.68899475811	2402
16	86831	30.73899475811	2407
16	87127	30.78899475811	2412
16	87218	30.83899475811	2417
16	87503	30.88899475811	2422
16	87594	30.93899475811	2427
16	87874	30.98899475811	2432
16	87965	31.03899475811	2437
16	88239	31.08899475811	2442
16	88330	31.13899475811	2447
16	88626	31.18899475811	2452
16	88717	31.23899475811	2457
16	89013	31.28899475811	2462
16	89104	31.33899475811	2467
16	89389	31.38899475811	2472
16	89480	31.43899475811	2477
16	89776	31.48899475811	2482
16	89867	31.53899475811	2487
16	90152	31.58899475811	2492
16	90243	31.63899475811	2497
16	90539	31.68899475811	2502
16	90630	31.73899475811	2507
16	90910	31.78899475811	2512
16	91001	31.83899475811	2517
16	91297	31.88899475811	2522
16	91388	31.93899475811	2527
16	91684	31.98899475811	2532
16	91775	32.03899475811	2537
16	92071	32.08899475811	2542
16	92162	32.13899475811	2547
16	92447	32.18899475811	2552
16	92538	32.23899475811	2557
16	92834	32.28899475811	2562
16	92925	32.33899475811	2567
16	93210	32.38899475811	2572
16	93301	32.43899475811	2577
16	93581	32.48899475811	2582
16	93672	32.53899475811	2587
16	93957	32.58899475811	2592
16	94048	32.63899475811	2597
16	94344	32.68899475811	2602
16	94435	32.73899475811	2607
16	94731	32.78899475811	2612
16	94822	32.83899475811	2617
16	95118	32.88899475811	2622
16	95209	32.93899475811	2627
16	95521	32.98899475811	2632
16	95612	33.03899475811	2637
16	95908	33.08899475811	2642
16	95999	33.13899475811	2647
16	96279	33.18899475811	2652
16	96370	33.23899475811	2657
16	96666	33.28899475811	2662
16	96757	33.33899475811	2667
16	97042	33.38899475811	2672
16	97133	33.43899475811	2677
16	97413	33.48899475811	2682
16	97504	33.53899475811	2687
16	97800	33.58899475811	2692
16	97891	33.63899475811	2697
16	98203	33.68899475811	2702
16	98294	33.73899475811	2707
16	98606	33.78899475811	2712
16	98697	33.83899475811	2717
16	99009	33.88899475811	2722
16	99100	33.93899475811	2727
16	99380	33.98899475811	2732
16	99471	34.03899475811	2737
16	99751	34.08899475811	2742
16	99842	34.13899475811	2747
16	100138	34.18899475811	2752
16	100229	34.23899475811	2757
16	100525	34.28899475811	2762
16	100616	34.33899475811	2767
16	100912	34.38899475811	2772
16	101003	34.43899475811	2777
16	101288	34.48899475811	2782
16	101379	34.53899475811	2787
16	101675	34.58899475811	2792
16	101766	34.63899475811	2797
16	102062	34.68899475811	2802
16	102153	34.73899475811	2807
16	102433	34.78899475811	2812
16	102524	34.83899475811	2817
16	102820	34.88899475811	2822
16	102911	34.93899475811	2827
16	103207	34.98899475811	2832
16	103298	35.03899475811	2837
16	103578	35.08899475811	2842
16	103669	35.13899475811	2847
16	103965	35.18899475811	2852
16	104056	35.23899475811	2857
16	104341	35.28899475811	2862
16	104432	35.33899475811	2867
16	104712	35.38899475811	2872
16	104803	35.43899475811	2877
16	105083	35.48899475811	2882
16	105174	35.53899475811	2887
16	105470	35.58899475811	2892
16	105561	35.63899475811	2897
16	105857	35.68899475811	2902
16	105948	35.73899475811	2907
16	106244	35.78899475811	2912
16	106335	35.83899475811	2917
16	106620	35.88899475811	2922
16	106711	35.93899475811	2927
16	107007	35.98899475811	2932
16	107098	36.03899475811	2937
16	107394	36.08899475811	2942
16	107485	36.13899475811	2947
16	107781	36.18899475811	2952
16	107872	36.23899475811	2957
16	108152	36.28899475811	2962
16	108243	36.33899475811	2967
16	108539	36.38899475811	2972
16	108630	36.43899475811	2977
16	108942	36.48899475811	2982
16	109033	36.53899475811	2987
16	109329	36.58899475811	2992
16	109420	36.63899475811	2997
16	109700	36.68899475811	3002
16	109791	36.73899475811	3007
16	110071	36.78899475811	3012
16	110162	36.83899475811	3017
16	110458	36.88899475811	3022
16	110549	36.93899475811	3027
16	110845	36.98899475811	3032
16	110936	37.03899475811	3037
16	111248	37.08899475811	3042
16	111339	37.13899475811	3047
16	111635	37.18899475811	3052
16	111726	37.23899475811	3057
16	112022	37.28899475811	3062
16	112113	37.33899475811	3067
16	112425	37.38899475811	3072
16	112516	37.43899475811	3077
16	112801	37.48899475811	3082
16	112892	37.53899475811	3087
16	113172	37.58899475811	3092
16	113263	37.63899475811	3097
16	113559	37.68899475811	3102
16	113650	37.73899475811	3107
16	113946	37.78899475811	3112
16	114037	37.83899475811	3117
16	114333	37.88899475811	3122
16	114424	37.93899475811	3127
16	114720	37.98899475811	3132
16	114811	38.03899475811	3137
16	115096	38.08899475811	3142
16	115187	38.13899475811	3147
16	115483	38.18899475811	3152
16	115574	38.23899475811	3157
16	115870	38.28899475811	3162
16	115961	38.33899475811	3167
16	116273	38.38899475811	3172
16	116364	38.43899475811	3177
16	116644	38.48899475811	3182
16	116735	38.53899475811	3187
16	117015	38.58899475811	3192
16	117106	38.63899475811	3197
16	117402	38.68899475811	3202
16	117493	38.73899475811	3207
16	117789	38.78899475811	3212
16	117880	38.83899475811	3217
16	118176	38.88899475811	3222
16	118267	38.93899475811	3227
16	118563	38.98899475811	3232
16	118654	39.03899475811	3237
16	118950	39.08899475811	3242
16	119041	39.13899475811	3247
16	119337	39.18899475811	3252
16	119428	39.23899475811	3257
16	119713	39.28899475811	3262
16	119804	39.33899475811	3267
16	120100	39.38899475811	3272
16	120191	39.43899475811	3277
16	120487	39.48899475811	3282
16	120578	39.53899475811	3287
16	120890	39.58899475811	3292
16	120981	39.63899475811	3297
16	121261	39.68899475811	3302
16	121352	39.73899475811	3307
16	121637	39.78899475811	3312
16	121728	39.83899475811	3317
16	122024	39.88899475811	3322
16	122115	39.93899475811	3327
16	122395	39.98899475811	3332
16	122486	40.03899475811	3337
16	122782	40.08899475811	3342
16	122873	40.13899475811	3347
16	123169	40.18899475811	3352
16	123260	40.23899475811	3357
16	123572	40.28899475811	3362
16	123663	40.33899475811	3367
16	123959	40.38899475811	3372
16	124050	40.43899475811	3377
16	124346	40.48899475811	3382
16	124437	40.53899475811	3387
16	124749	40.58899475811	3392
16	124840	40.63899475811	3397
16	125120	40.68899475811	3402
16	125211	40.73899475811	3407
16	125507	40.78899475811	3412
16	125598	40.83899475811	3417
16	125894	40.88899475811	3422
16	125985	40.93899475811	3427
16	126297	40.98899475811	3432
16	126388	41.03899475811	3437
16	126668	41.08899475811	3442
16	126759	41.13899475811	3447
16	127044	41.18899475811	3452
16	127135	41.23899475811	3457
16	127431	41.28899475811	3462
16	127522	41.33899475811	3467
16	127818	41.38899475811	3472
16	127909	41.43899475811	3477
16	128205	41.48899475811	3482
16	128296	41.53899475811	3487
16	128592	41.58899475811	3492
16	128683	41.63899475811	3497
16	128968	41.68899475811	3502
16	129059	41.73899475811	3507
16	129355	41.78899475811	3512
16	129446	41.83899475811	3517
16	129742	41.88899475811	3522
16	129833	41.93899475811	3527
16	130113	41.98899475811	3532
16	130204	42.03899475811	3537
16	130500	42.08899475811	3542
16	130591	42.13899475811	3547
16	130887	42.18899475811	3552
16	130978	42.23899475811	3557
16	131258	42.28899475811	3562
16	131349	42.33899475811	3567
16	131634	42.38899475811	3572
16	131725	42.43899475811	3577
16	132021	42.48899475811	3582
16	132112	42.53899475811	3587
16	132424	42.58899475811	3592
16	132515	42.63899475811	3597
16	132811	42.68899475811	3602
16	132902	42.73899475811	3607
16	133182	42.78899475811	3612
16	133273	42.83899475811	3617
16	133569	42.88899475811	3622
16	133660	42.93899475811	3627
16	133956	42.98899475811	3632
16	134047	43.03899475811	3637
16	134359	43.08899475811	3642
16	134450	43.13899475811	3647
16	134735	43.18899475811	3652
16	134826	43.23899475811	3657
16	135122	43.28899475811	3662
16	135213	43.33899475811	3667
16	135498	43.38899475811	3672
16	135589	43.43899475811	3677
16	135885	43.48899475811	3682
16	135976	43.53899475811	3687
16	136256	43.58899475811	3692
16	136347	43.63899475811	3697
16	136643	43.68899475811	3702
16	136734	43.73899475811	3707
16	137030	43.78899475811	3712
16	137121	43.83899475811	3717
16	137406	43.88899475811	3722
16	137497	43.93899475811	3727
16	137793	43.98899475811	3732
16	137884	44.03899475811	3737
16	138169	44.08899475811	3742
16	138260	44.13899475811	3747
16	138556	44.18899475811	3752
16	138647	44.23899475811	3757
16	138927	44.28899475811	3762
16	139018	44.33899475811	3767
16	139298	44.38899475811	3772
16	139389	44.43899475811	3777
16	139685	44.48899475811	3782
16	139776	44.53899475811	3787
16	140072	44.58899475811	3792
16	140163	44.63899475811	3797
16	140448	44.68899475811	3802
16	140539	44.73899475811	3807
16	140835	44.78899475811	3812
16	140926	44.83899475811	3817
16	141222	44.88899475811	3822
16	141313	44.93899475811	3827
16	141609	44.98899475811	3832
16	141700	45.03899475811	3837
16	141980	45.08899475811	3842
16	142071	45.13899475811	3847
16	142367	45.18899475811	3852
16	142458	45.23899475811	3857
16	142738	45.28899475811	3862
16	142829	45.33899475811	3867
16	143109	45.38899475811	3872
16	143200	45.43899475811	3877
16	143485	45.48899475811	3882
16	143576	45.53899475811	3887
16	143872	45.58899475811	3892
16	143963	45.63899475811	3897
16	144259	45.68899475811	3902
16	144350	45.73899475811	3907
16	144630	45.78899475811	3912
16	144721	45.83899475811	3917
16	145017	45.88899475811	3922
16	145108	45.93899475811	3927
16	145388	45.98899475811	3932
16	145479	46.03899475811	3937
16	145775	46.08899475811	3942
16	145866	46.13899475811	3947
16	146178	46.18899475811	3952
16	146269	46.23899475811	3957
16	146581	46.28899475811	3962
16	146672	46.33899475811	3967
16	146957	46.38899475811	3972
16	147048	46.43899475811	3977
16	147344	46.48899475811	3982
16	147435	46.53899475811	3987
16	147731	46.58899475811	3992
16	147822	46.63899475811	3997
16	148102	46.68899475811	4002
16	148193	46.73899475811	4007
16	148489	46.78899475811	4012
16	148580	46.83899475811	4017
16	148860	46.88899475811	4022
16	148951	46.93899475811	4027
16	149231	46.98899475811	4032
16	149322	47.03899475811	4037
16	149618	47.08899475811	4042
16	149709	47.13899475811	4047
16	150005	47.18899475811	4052
16	150096	47.23899475811	4057
16	150392	47.28899475811	4062
16	150483	47.33899475811	4067
16	150768	47.38899475811	4072
16	150859	47.43899475811	4077
16	151155	47.48899475811	4082
16	151246	47.53899475811	4087
16	151526	47.58899475811	4092
16	151617	47.63899475811	4097
16	151897	47.68899475811	4102
16	151988	47.73899475811	4107
16	152284	47.78899475811	4112
16	152375	47.83899475811	4117
16	152671	47.88899475811	4122
16	152762	47.93899475811	4127
16	153058	47.98899475811	4132
16	153149	48.03899475811	4137
16	153445	48.08899475811	4142
16	153536	48.13899475811	4147
16	153848	48.18899475811	4152
16	153939	48.23899475811	4157
16	154235	48.28899475811	4162
16	154326	48.33899475811	4167
16	154622	48.38899475811	4172
16	154713	48.43899475811	4177
16	154998	48.48899475811	4182
16	155089	48.53899475811	4187
16	155385	48.58899475811	4192
16	155476	48.63899475811	4197
16	155761	48.68899475811	4202
16	155852	48.73899475811	4207
16	156137	48.78899475811	4212
16	156228	48.83899475811	4217
16	156540	48.88899475811	4222
16	156631	48.93899475811	4227
16	156943	48.98899475811	4232
16	157034	49.03899475811	4237
16	157314	49.08899475811	4242
16	157405	49.13899475811	4247
16	157701	49.18899475811	4252
16	157792	49.23899475811	4257
16	158066	49.28899475811	4262
16	158157	49.33899475811	4267
16	158453	49.38899475811	4272
16	158544	49.43899475811	4277
16	158840	49.48899475811	4282
16	158931	49.53899475811	4287
16	159211	49.58899475811	4292
16	159302	49.63899475811	4297
16	159614	49.68899475811	4302
16	159705	49.73899475811	4307
16	160017	49.78899475811	4312
16	160108	49.83899475811	4317
16	160393	49.88899475811	4322
16	160484	49.93899475811	4327
16	160780	49.98899475811	4332
16	160871	50.03899475811	4337
16	161156	50.08899475811	4342
16	161247	50.13899475811	4347
16	161543	50.18899475811	4352
16	161634	50.23899475811	4357
16	161930	50.28899475811	4362
16	162021	50.33899475811	4367
16	162333	50.38899475811	4372
16	162424	50.43899475811	4377
16	162709	50.48899475811	4382
16	162800	50.53899475811	4387
16	163096	50.58899475811	4392
16	163187	50.63899475811	4397
16	163483	50.68899475811	4402
16	163574	50.73899475811	4407
16	163859	50.78899475811	4412
16	163950	50.83899475811	4417
16	164246	50.88899475811	4422
16	164337	50.93899475811	4427
16	164633	50.98899475811	4432
16	164724	51.03899475811	4437
16	165020	51.08899475811	4442
16	165111	51.13899475811	4447
16	165407	51.18899475811	4452
16	165498	51.23899475811	4457
16	165810	51.28899475811	4462
16	165901	51.33899475811	4467
16	166197	51.38899475811	4472
16	166288	51.43899475811	4477
16	166584	51.48899475811	4482
16	166675	51.53899475811	4487
16	166960	51.58899475811	4492
16	167051	51.63899475811	4497
16	167347	51.68899475811	4502
16	167438	51.73899475811	4507
16	167723	51.78899475811	4512
16	167814	51.83899475811	4517
16	168094	51.88899475811	4522
16	168185	51.93899475811	4527
16	168470	51.98899475811	4532
16	168561	52.03899475811	4537
16	168841	52.08899475811	4542
16	168932	52.13899475811	4547
16	169217	52.18899475811	4552
16	169308	52.23899475811	4557
16	169593	52.28899475811	4562
16	169684	52.33899475811	4567
16	169980	52.38899475811	4572
16	170071	52.43899475811	4577
16	170351	52.48899475811	4582
16	170442	52.53899475811	4587
16	170738	52.58899475811	4592
16	170829	52.63899475811	4597
16	171114	52.68899475811	4602
16	171205	52.73899475811	4607
16	171501	52.78899475811	4612
16	171592	52.83899475811	4617
16	171888	52.88899475811	4622
16	171979	52.93899475811	4627
16	172275	52.98899475811	4632
16	172366	53.03899475811	4637
16	172662	53.08899475811	4642
16	172753	53.13899475811	4647
16	173049	53.18899475811	4652
16	173140	53.23899475811	4657
16	173420	53.28899475811	4662
16	173511	53.33899475811	4667
16	173807	53.38899475811	4672
16	173898	53.43899475811	4677
16	174194	53.48899475811	4682
16	174285	53.53899475811	4687
16	174581	53.58899475811	4692
16	174672	53.63899475811	4697
16	174957	53.68899475811	4702
16	175048	53.73899475811	4707
16	175344	53.78899475811	4712
16	175435	53.83899475811	4717
16	175731	53.88899475811	4722
16	175822	53.93899475811	4727
16	176107	53.98899475811	4732
16	176198	54.03899475811	4737
16	176494	54.08899475811	4742
16	176585	54.13899475811	4747
16	176897	54.18899475811	4752
16	176988	54.23899475811	4757
16	177284	54.28899475811	4762
16	177375	54.33899475811	4767
16	177671	54.38899475811	4772
16	177762	54.43899475811	4777
16	178058	54.48899475811	4782
16	178149	54.53899475811	4787
16	178445	54.58899475811	4792
16	178536	54.63899475811	4797
16	178832	54.68899475811	4802
16	178923	54.73899475811	4807
16	179203	54.78899475811	4812
16	179294	54.83899475811	4817
16	179590	54.88899475811	4822
16	179681	54.93899475811	4827
16	179961	54.98899475811	4832
16	180052	55.03899475811	4837
16	180348	55.08899475811	4842
16	180439	55.13899475811	4847
16	180735	55.18899475811	4852
16	180826	55.23899475811	4857
16	181138	55.28899475811	4862
16	181229	55.33899475811	4867
16	181509	55.38899475811	4872
16	181600	55.43899475811	4877
16	181896	55.48899475811	4882
16	181987	55.53899475811	4887
16	182283	55.58899475811	4892
16	182374	55.63899475811	4897
16	182670	55.68899475811	4902
16	182761	55.73899475811	4907
16	183046	55.78899475811	4912
16	183137	55.83899475811	4917
16	183433	55.88899475811	4922
16	183524	55.93899475811	4927
16	183809	55.98899475811	4932
16	183900	56.03899475811	4937
16	184196	56.08899475811	4942
16	184287	56.13899475811	4947
16	184567	56.18899475811	4952
16	184658	56.23899475811	4957
16	184943	56.28899475811	4962
16	185034	56.33899475811	4967
16	185330	56.38899475811	4972
16	185421	56.43899475811	4977
16	185706	56.48899475811	4982
16	185797	56.53899475811	4987
16	186109	56.58899475811	4992
16	186200	56.63899475811	4997
16	186496	56.68899475811	5002
16	186587	56.73899475811	5007
16	186872	56.78899475811	5012
16	186963	56.83899475811	5017
16	187259	56.88899475811	5022
16	187350	56.93899475811	5027
16	187630	56.98899475811	5032
16	187721	57.03899475811	5037
16	188006	57.08899475811	5042
16	188097	57.13899475811	5047
16	188382	57.18899475811	5052
16	188473	57.23899475811	5057
16	188758	57.28899475811	5062
16	188849	57.33899475811	5067
16	189145	57.38899475811	5072
16	189236	57.43899475811	5077
16	189516	57.48899475811	5082
16	189607	57.53899475811	5087
16	189903	57.58899475811	5092
16	189994	57.63899475811	5097
16	190290	57.68899475811	5102
16	190381	57.73899475811	5107
16	190693	57.78899475811	5112
16	190784	57.83899475811	5117
16	191080	57.88899475811	5122
16	191171	57.93899475811	5127
16	191467	57.98899475811	5132
16	191558	58.03899475811	5137
16	191843	58.08899475811	5142
16	191934	58.13899475811	5147
16	192230	58.18899475811	5152
16	192321	58.23899475811	5157
16	192617	58.28899475811	5162
16	192708	58.33899475811	5167
16	192988	58.38899475811	5172
16	193079	58.43899475811	5177
16	193375	58.48899475811	5182
16	193466	58.53899475811	5187
16	193751	58.58899475811	5192
16	193842	58.63899475811	5197
16	194138	58.68899475811	5202
16	194229	58.73899475811	5207
16	194525	58.78899475811	5212
16	194616	58.83899475811	5217
16	194912	58.88899475811	5222
16	195003	58.93899475811	5227
16	195299	58.98899475811	5232
16	195390	59.03899475811	5237
16	195686	59.08899475811	5242
16	195777	59.13899475811	5247
16	196073	59.18899475811	5252
16	196164	59.23899475811	5257
16	196449	59.28899475811	5262
16	196540	59.33899475811	5267
16	196836	59.38899475811	5272
16	196927	59.43899475811	5277
16	197223	59.48899475811	5282
16	197314	59.53899475811	5287
16	197610	59.58899475811	5292
16	197701	59.63899475811	5297
16	198013	59.68899475811	5302
16	198104	59.73899475811	5307
16	198400	59.78899475811	5312
16	198491	59.83899475811	5317
16	198787	59.88899475811	5322
16	198878	59.93899475811	5327
16	199174	59.98899475811	5332
16	199265	60.03899475811	5337
16	199561	60.08899475811	5342
16	199652	60.13899475811	5347
16	199932	60.18899475811	5352
16	200023	60.23899475811	5357
16	200319	60.28899475811	5362
16	200410	60.33899475811	5367
16	200690	60.38899475811	5372
16	200781	60.43899475811	5377
16	201077	60.48899475811	5382
16	201168	60.53899475811	5387
16	201480	60.58899475811	5392
16	201571	60.63899475811	5397
16	201856	60.68899475811	5402
16	201947	60.73899475811	5407
16	202227	60.78899475811	5412
16	202318	60.83899475811	5417
16	202614	60.88899475811	5422
16	202705	60.93899475811	5427
16	203001	60.98899475811	5432
16	203092	61.03899475811	5437
16	203377	61.08899475811	5442
16	203468	61.13899475811	5447
16	203780	61.18899475811	5452
16	203871	61.23899475811	5457
16	204167	61.28899475811	5462
16	204258	61.33899475811	5467
16	204543	61.38899475811	5472
16	204634	61.43899475811	5477
16	204946	61.48899475811	5482
16	205037	61.53899475811	5487
16	205317	61.58899475811	5492
15	52	1.08899475811	1
15	70	1.13899475811	2
15	87	1.18899475811	3
15	105	1.23899475811	4
15	122	1.28899475811	5
15	140	1.33899475811	6
15	157	1.38899475811	7
15	175	1.43899475811	8
15	192	1.48899475811	9
15	210	1.53899475811	10
15	227	1.58899475811	11
15	245	1.63899475811	12
15	262	1.68899475811	13
15	280	1.73899475811	14
15	297	1.78899475811	15
15	315	1.83899475811	16
15	332	1.88899475811	17
15	350	1.93899475811	18
15	367	1.98899475811	19
15	385	2.03899475811	20
15	402	2.08899475811	21
15	420	2.13899475811	22
15	437	2.18899475811	23
15	455	2.23899475811	24
15	472	2.28899475811	25
15	490	2.33899475811	26
15	507	2.38899475811	27
15	525	2.43899475811	28
15	542	2.48899475811	29
15	560	2.53899475811	30
15	577	2.58899475811	31
15	595	2.63899475811	32
15	612	2.68899475811	33
15	630	2.73899475811	34
15	647	2.78899475811	35
15	665	2.83899475811	36
15	682	2.88899475811	37
15	700	2.93899475811	38
15	717	2.98899475811	39
15	735	3.03899475811	40
15	752	3.08899475811	41
15	770	3.13899475811	42
15	794	3.18899475811	43
15	819	3.23899475811	44
15	843	3.28899475811	45
15	868	3.33899475811	46
15	892	3.38899475811	47
15	917	3.43899475811	48
15	941	3.48899475811	49
15	966	3.53899475811	50
15	990	3.58899475811	51
15	1015	3.63899475811	52
15	1039	3.68899475811	53
15	1064	3.73899475811	54
15	1088	3.78899475811	55
15	1113	3.83899475811	56
15	1137	3.88899475811	57
15	1183	3.93899475811	58
15	1228	3.98899475811	59
15	1274	4.03899475811	60
15	1319	4.08899475811	61
15	1365	4.13899475811	62
15	1410	4.18899475811	63
15	1456	4.23899475811	64
15	1501	4.28899475811	65
15	1547	4.33899475811	66
15	1592	4.38899475811	67
15	1638	4.43899475811	68
15	1683	4.48899475811	69
15	1729	4.53899475811	70
15	1774	4.58899475811	71
15	1820	4.63899475811	72
15	1865	4.68899475811	73
15	1911	4.73899475811	74
15	1956	4.78899475811	75
15	2002	4.83899475811	76
15	2047	4.88899475811	77
15	2093	4.93899475811	78
15	2138	4.98899475811	79
15	2184	5.03899475811	80
15	2229	5.08899475811	81
15	2275	5.13899475811	82
15	2320	5.18899475811	83
15	2366	5.23899475811	84
15	2411	5.28899475811	85
15	2457	5.33899475811	86
15	2502	5.38899475811	87
15	2548	5.43899475811	88
15	2593	5.48899475811	89
15	2639	5.53899475811	90
15	2684	5.58899475811	91
15	2730	5.63899475811	92
15	2775	5.68899475811	93
15	2821	5.73899475811	94
15	2866	5.78899475811	95
15	2912	5.83899475811	96
15	2957	5.88899475811	97
15	3003	5.93899475811	98
[...]
14	140916	44.800095691668	0.002
14	140932	44.850095691668	0.001
14	141303	44.900095691668	0.002
14	141319	44.950095691668	0.001
14	141690	45.000095691668	0.002
14	141706	45.050095691668	0.001
14	142061	45.100095691668	0.002
14	142077	45.150095691668	0.001
14	142448	45.200095691668	0.002
14	142464	45.250095691668	0.001
14	142819	45.300095691668	0.002
14	142835	45.350095691668	0.001
14	143190	45.400095691668	0.002
14	143206	45.450095691668	0.001
14	143566	45.500095691668	0.002
14	143582	45.550095691668	0.001
14	143953	45.600095691668	0.002
14	143969	45.650095691668	0.001
14	144340	45.700095691668	0.002
14	144356	45.750095691668	0.001
14	144711	45.800095691668	0.002
14	144727	45.850095691668	0.001
14	145098	45.900095691668	0.002
14	145114	45.950095691668	0.001
14	145469	46.000095691668	0.002
14	145485	46.050095691668	0.001
14	145856	46.100095691668	0.002
14	145872	46.150095691668	0.001
14	146259	46.200095691668	0.002
14	146275	46.250095691668	0.001
14	146662	46.300095691668	0.002
14	146678	46.350095691668	0.001
14	147038	46.400095691668	0.002
14	147054	46.450095691668	0.001
14	147425	46.500095691668	0.002
14	147441	46.550095691668	0.001
14	147812	46.600095691668	0.002
14	147828	46.650095691668	0.001
14	148183	46.700095691668	0.002
14	148199	46.750095691668	0.001
14	148570	46.800095691668	0.002
14	148586	46.850095691668	0.001
14	148941	46.900095691668	0.002
14	148957	46.950095691668	0.001
14	149312	47.000095691668	0.002
14	149328	47.050095691668	0.001
14	149699	47.100095691668	0.002
14	149715	47.150095691668	0.001
14	150086	47.200095691668	0.002
14	150102	47.250095691668	0.001
14	150473	47.300095691668	0.002
14	150489	47.350095691668	0.001
14	150849	47.400095691668	0.002
14	150865	47.450095691668	0.001
14	151236	47.500095691668	0.002
14	151252	47.550095691668	0.001
14	151607	47.600095691668	0.002
14	151623	47.650095691668	0.001
14	151978	47.700095691668	0.002
14	151994	47.750095691668	0.001
14	152365	47.800095691668	0.002
14	152381	47.850095691668	0.001
14	152752	47.900095691668	0.002
14	152768	47.950095691668	0.001
14	153139	48.000095691668	0.002
14	153155	48.050095691668	0.001
14	153526	48.100095691668	0.002
14	153542	48.150095691668	0.001
14	153929	48.200095691668	0.002
14	153945	48.250095691668	0.001
14	154316	48.300095691668	0.002
14	154332	48.350095691668	0.001
14	154703	48.400095691668	0.002
14	154719	48.450095691668	0.001
14	155079	48.500095691668	0.002
14	155095	48.550095691668	0.001
14	155466	48.600095691668	0.002
14	155482	48.650095691668	0.001
14	155842	48.700095691668	0.002
14	155858	48.750095691668	0.001
14	156218	48.800095691668	0.002
14	156234	48.850095691668	0.001
14	156621	48.900095691668	0.002
14	156637	48.950095691668	0.001
14	157024	49.000095691668	0.002
14	157040	49.050095691668	0.001
14	157395	49.100095691668	0.002
14	157411	49.150095691668	0.001
14	157782	49.200095691668	0.002
14	157798	49.250095691668	0.001
14	158147	49.300095691668	0.002
14	158163	49.350095691668	0.001
14	158534	49.400095691668	0.002
14	158550	49.450095691668	0.001
14	158921	49.500095691668	0.002
14	158937	49.550095691668	0.001
14	159292	49.600095691668	0.002
14	159308	49.650095691668	0.001
14	159695	49.700095691668	0.002
14	159711	49.750095691668	0.001
14	160098	49.800095691668	0.002
14	160114	49.850095691668	0.001
14	160474	49.900095691668	0.002
14	160490	49.950095691668	0.001
14	160861	50.000095691668	0.002
14	160877	50.050095691668	0.001
14	161237	50.100095691668	0.002
14	161253	50.150095691668	0.001
14	161624	50.200095691668	0.002
14	161640	50.250095691668	0.001
14	162011	50.300095691668	0.002
14	162027	50.350095691668	0.001
14	162414	50.400095691668	0.002
14	162430	50.450095691668	0.001
14	162790	50.500095691668	0.002
14	162806	50.550095691668	0.001
14	163177	50.600095691668	0.002
14	163193	50.650095691668	0.001
14	163564	50.700095691668	0.002
14	163580	50.750095691668	0.001
14	163940	50.800095691668	0.002
14	163956	50.850095691668	0.001
14	164327	50.900095691668	0.002
14	164343	50.950095691668	0.001
14	164714	51.000095691668	0.002
14	164730	51.050095691668	0.001
14	165101	51.100095691668	0.002
14	165117	51.150095691668	0.001
14	165488	51.200095691668	0.002
14	165504	51.250095691668	0.001
14	165891	51.300095691668	0.002
14	165907	51.350095691668	0.001
14	166278	51.400095691668	0.002
14	166294	51.450095691668	0.001
14	166665	51.500095691668	0.002
14	166681	51.550095691668	0.001
14	167041	51.600095691668	0.002
14	167057	51.650095691668	0.001
14	167428	51.700095691668	0.002
14	167444	51.750095691668	0.001
14	167804	51.800095691668	0.002
14	167820	51.850095691668	0.001
14	168175	51.900095691668	0.002
14	168191	51.950095691668	0.001
14	168551	52.000095691668	0.002
14	168567	52.050095691668	0.001
14	168922	52.100095691668	0.002
14	168938	52.150095691668	0.001
14	169298	52.200095691668	0.002
14	169314	52.250095691668	0.001
14	169674	52.300095691668	0.002
14	169690	52.350095691668	0.001
14	170061	52.400095691668	0.002
14	170077	52.450095691668	0.001
14	170432	52.500095691668	0.002
14	170448	52.550095691668	0.001
14	170819	52.600095691668	0.002
14	170835	52.650095691668	0.001
14	171195	52.700095691668	0.002
14	171211	52.750095691668	0.001
14	171582	52.800095691668	0.002
14	171598	52.850095691668	0.001
14	171969	52.900095691668	0.002
14	171985	52.950095691668	0.001
14	172356	53.000095691668	0.002
14	172372	53.050095691668	0.001
14	172743	53.100095691668	0.002
14	172759	53.150095691668	0.001
14	173130	53.200095691668	0.002
14	173146	53.250095691668	0.001
14	173501	53.300095691668	0.002
14	173517	53.350095691668	0.001
14	173888	53.400095691668	0.002
14	173904	53.450095691668	0.001
14	174275	53.500095691668	0.002
14	174291	53.550095691668	0.001
14	174662	53.600095691668	0.002
14	174678	53.650095691668	0.001
14	175038	53.700095691668	0.002
14	175054	53.750095691668	0.001
14	175425	53.800095691668	0.002
14	175441	53.850095691668	0.001
14	175812	53.900095691668	0.002
14	175828	53.950095691668	0.001
14	176188	54.000095691668	0.002
14	176204	54.050095691668	0.001
14	176575	54.100095691668	0.002
14	176591	54.150095691668	0.001
14	176978	54.200095691668	0.002
14	176994	54.250095691668	0.001
14	177365	54.300095691668	0.002
14	177381	54.350095691668	0.001
14	177752	54.400095691668	0.002
14	177768	54.450095691668	0.001
14	178139	54.500095691668	0.002
14	178155	54.550095691668	0.001
14	178526	54.600095691668	0.002
14	178542	54.650095691668	0.001
14	178913	54.700095691668	0.002
14	178929	54.750095691668	0.001
14	179284	54.800095691668	0.002
14	179300	54.850095691668	0.001
14	179671	54.900095691668	0.002
14	179687	54.950095691668	0.001
14	180042	55.000095691668	0.002
14	180058	55.050095691668	0.001
14	180429	55.100095691668	0.002
14	180445	55.150095691668	0.001
14	180816	55.200095691668	0.002
14	180832	55.250095691668	0.001
14	181219	55.300095691668	0.002
14	181235	55.350095691668	0.001
14	181590	55.400095691668	0.002
14	181606	55.450095691668	0.001
14	181977	55.500095691668	0.002
14	181993	55.550095691668	0.001
14	182364	55.600095691668	0.002
14	182380	55.650095691668	0.001
14	182751	55.700095691668	0.002
14	182767	55.750095691668	0.001
14	183127	55.800095691668	0.002
14	183143	55.850095691668	0.001
14	183514	55.900095691668	0.002
14	183530	55.950095691668	0.001
14	183890	56.000095691668	0.002
14	183906	56.050095691668	0.001
14	184277	56.100095691668	0.002
14	184293	56.150095691668	0.001
14	184648	56.200095691668	0.002
14	184664	56.250095691668	0.001
14	185024	56.300095691668	0.002
14	185040	56.350095691668	0.001
14	185411	56.400095691668	0.002
14	185427	56.450095691668	0.001
14	185787	56.500095691668	0.002
14	185803	56.550095691668	0.001
14	186190	56.600095691668	0.002
14	186206	56.650095691668	0.001
14	186577	56.700095691668	0.002
14	186593	56.750095691668	0.001
14	186953	56.800095691668	0.002
14	186969	56.850095691668	0.001
14	187340	56.900095691668	0.002
14	187356	56.950095691668	0.001
14	187711	57.000095691668	0.002
14	187727	57.050095691668	0.001
14	188087	57.100095691668	0.002
14	188103	57.150095691668	0.001
14	188463	57.200095691668	0.002
14	188479	57.250095691668	0.001
14	188839	57.300095691668	0.002
14	188855	57.350095691668	0.001
14	189226	57.400095691668	0.002
14	189242	57.450095691668	0.001
14	189597	57.500095691668	0.002
14	189613	57.550095691668	0.001
14	189984	57.600095691668	0.002
14	190000	57.650095691668	0.001
14	190371	57.700095691668	0.002
14	190387	57.750095691668	0.001
14	190774	57.800095691668	0.002
14	190790	57.850095691668	0.001
14	191161	57.900095691668	0.002
14	191177	57.950095691668	0.001
14	191548	58.000095691668	0.002
14	191564	58.050095691668	0.001
14	191924	58.100095691668	0.002
14	191940	58.150095691668	0.001
14	192311	58.200095691668	0.002
14	192327	58.250095691668	0.001
14	192698	58.300095691668	0.002
14	192714	58.350095691668	0.001
14	193069	58.400095691668	0.002
14	193085	58.450095691668	0.001
14	193456	58.500095691668	0.002
14	193472	58.550095691668	0.001
14	193832	58.600095691668	0.002
14	193848	58.650095691668	0.001
14	194219	58.700095691668	0.002
14	194235	58.750095691668	0.001
14	194606	58.800095691668	0.002
14	194622	58.850095691668	0.001
14	194993	58.900095691668	0.002
14	195009	58.950095691668	0.001
14	195380	59.000095691668	0.002
14	195396	59.050095691668	0.001
14	195767	59.100095691668	0.002
14	195783	59.150095691668	0.001
14	196154	59.200095691668	0.002
14	196170	59.250095691668	0.001
14	196530	59.300095691668	0.002
14	196546	59.350095691668	0.001
14	196917	59.400095691668	0.002
14	196933	59.450095691668	0.001
14	197304	59.500095691668	0.002
14	197320	59.550095691668	0.001
14	197691	59.600095691668	0.002
14	197707	59.650095691668	0.001
14	198094	59.700095691668	0.002
14	198110	59.750095691668	0.001
14	198481	59.800095691668	0.002
14	198497	59.850095691668	0.001
14	198868	59.900095691668	0.002
14	198884	59.950095691668	0.001
14	199255	60.000095691668	0.002
14	199271	60.050095691668	0.001
14	199642	60.100095691668	0.002
14	199658	60.150095691668	0.001
14	200013	60.200095691668	0.002
14	200029	60.250095691668	0.001
14	200400	60.300095691668	0.002
14	200416	60.350095691668	0.001
14	200771	60.400095691668	0.002
14	200787	60.450095691668	0.001
14	201158	60.500095691668	0.002
14	201174	60.550095691668	0.001
14	201561	60.600095691668	0.002
14	201577	60.650095691668	0.001
14	201937	60.700095691668	0.002
14	201953	60.750095691668	0.001
14	202308	60.800095691668	0.002
14	202324	60.850095691668	0.001
14	202695	60.900095691668	0.002
14	202711	60.950095691668	0.001
14	203082	61.000095691668	0.002
14	203098	61.050095691668	0.001
14	203458	61.100095691668	0.002
14	203474	61.150095691668	0.001
14	203861	61.200095691668	0.002
14	203877	61.250095691668	0.001
14	204248	61.300095691668	0.002
14	204264	61.350095691668	0.001
14	204624	61.400095691668	0.002
14	204640	61.450095691668	0.001
14	205027	61.500095691668	0.002
14	205043	61.550095691668	0.001
14	205397	61.600095691668	0.002
14	205410	61.650095691668	0.001
14	205659	61.700095691668	0.002
14	205672	61.750095691668	0.001
14	205921	61.800095691668	0.002
14	205934	61.850095691668	0.001
14	206183	61.900095691668	0.002
14	206196	61.950095691668	0.001
14	206458	62.000095691668	0.002
14	206471	62.050095691668	0.001
14	206720	62.100095691668	0.002
14	206733	62.150095691668	0.001
14	206995	62.200095691668	0.002
14	207008	62.250095691668	0.001
14	207257	62.300095691668	0.002
14	207270	62.350095691668	0.001
14	207519	62.400095691668	0.002
14	207532	62.450095691668	0.001
14	207794	62.500095691668	0.002
14	207807	62.550095691668	0.001
14	208056	62.600095691668	0.002
14	208069	62.650095691668	0.001
14	208309	62.700095691668	0.002
14	208322	62.750095691668	0.001
14	208571	62.800095691668	0.002
14	208584	62.850095691668	0.001
14	208846	62.900095691668	0.002
14	208859	62.950095691668	0.001
14	209108	63.000095691668	0.002
14	209121	63.050095691668	0.001
14	209370	63.100095691668	0.002
14	209383	63.150095691668	0.001
14	209645	63.200095691668	0.002
14	209658	63.250095691668	0.001
14	209907	63.300095691668	0.002
14	209920	63.350095691668	0.001
14	210169	63.400095691668	0.002
14	210182	63.450095691668	0.001
14	210431	63.500095691668	0.002
14	210444	63.550095691668	0.001
14	210693	63.600095691668	0.002
14	210706	63.650095691668	0.001
14	210955	63.700095691668	0.002
14	210968	63.750095691668	0.001
14	211230	63.800095691668	0.002
14	211243	63.850095691668	0.001
14	211492	63.900095691668	0.002
14	211505	63.950095691668	0.001
14	211754	64.000095691668	0.002
14	211767	64.050095691668	0.001
14	212029	64.100095691668	0.002
14	212042	64.150095691668	0.001
14	212291	64.200095691668	0.002
14	212304	64.250095691668	0.001
14	212553	64.300095691668	0.002
14	212566	64.350095691668	0.001
14	212828	64.400095691668	0.002
14	212841	64.450095691668	0.001
14	213090	64.500095691668	0.002
14	213103	64.550095691668	0.001
14	213352	64.600095691668	0.002
14	213362	64.650095691668	0.001
14	213513	64.700095691668	0.002
14	213523	64.750095691668	0.001
14	213684	64.800095691668	0.002
14	213694	64.850095691668	0.001
14	213855	64.900095691668	0.002
14	213865	64.950095691668	0.001
14	214026	65.000095691668	0.002
14	214036	65.050095691668	0.001
14	214197	65.100095691668	0.002
14	214207	65.150095691668	0.001
14	214368	65.200095691668	0.002
14	214378	65.250095691668	0.001
14	214529	65.300095691668	0.002
14	214539	65.350095691668	0.001
14	214700	65.400095691668	0.002
14	214710	65.450095691668	0.001
14	214871	65.500095691668	0.002
14	214881	65.550095691668	0.001
14	215042	65.600095691668	0.002
14	215052	65.650095691668	0.001
14	215213	65.700095691668	0.002
14	215223	65.750095691668	0.001
14	215384	65.800095691668	0.002
14	215394	65.850095691668	0.001
14	215545	65.900095691668	0.002
14	215555	65.950095691668	0.001
14	215706	66.000095691668	0.002
14	215716	66.050095691668	0.001
14	215877	66.100095691668	0.002
14	215887	66.150095691668	0.001
14	216048	66.200095691668	0.002
14	216058	66.250095691668	0.001
14	216219	66.300095691668	0.002
14	216229	66.350095691668	0.001
14	216390	66.400095691668	0.002
14	216400	66.450095691668	0.001
14	216561	66.500095691668	0.002
14	216571	66.550095691668	0.001
14	216732	66.600095691668	0.002
14	216742	66.650095691668	0.001
14	216903	66.700095691668	0.002
14	216913	66.750095691668	0.001
14	217074	66.800095691668	0.002
14	217084	66.850095691668	0.001
14	217245	66.900095691668	0.002
14	217255	66.950095691668	0.001
14	217416	67.000095691668	0.002
14	217426	67.050095691668	0.001
14	217587	67.100095691668	0.002
14	217597	67.150095691668	0.001
14	217758	67.200095691668	0.002
14	217768	67.250095691668	0.001
14	217929	67.300095691668	0.002
14	217939	67.350095691668	0.001
14	218090	67.400095691668	0.002
14	218100	67.450095691668	0.001
14	218261	67.500095691668	0.002
14	218271	67.550095691668	0.001
14	218432	67.600095691668	0.002
14	218442	67.650095691668	0.001
14	218593	67.700095691668	0.002
14	218603	67.750095691668	0.001
14	218753	67.800095691668	0.002
14	218760	67.850095691668	0.001
14	218844	67.900095691668	0.002
14	218851	67.950095691668	0.001
14	218935	68.000095691668	0.002
14	218942	68.050095691668	0.001
14	219026	68.100095691668	0.002
14	219033	68.150095691668	0.001
14	219117	68.200095691668	0.002
14	219124	68.250095691668	0.001
14	219208	68.300095691668	0.002
14	219215	68.350095691668	0.001
14	219299	68.400095691668	0.002
14	219306	68.450095691668	0.001
14	219390	68.500095691668	0.002
14	219397	68.550095691668	0.001
14	219481	68.600095691668	0.002
14	219488	68.650095691668	0.001
14	219572	68.700095691668	0.002
14	219579	68.750095691668	0.001
14	219663	68.800095691668	0.002
14	219670	68.850095691668	0.001
14	219754	68.900095691668	0.002
14	219761	68.950095691668	0.001
14	219845	69.000095691668	0.002
14	219852	69.050095691668	0.001
14	219936	69.100095691668	0.002
14	219943	69.150095691668	0.001
14	220027	69.200095691668	0.002
14	220034	69.250095691668	0.001
14	220118	69.300095691668	0.002
14	220125	69.350095691668	0.001
14	220209	69.400095691668	0.002
14	220216	69.450095691668	0.001
14	220300	69.500095691668	0.002
14	220307	69.550095691668	0.001
14	220391	69.600095691668	0.002
14	220398	69.650095691668	0.001
14	220482	69.700095691668	0.002
14	220489	69.750095691668	0.001
14	220573	69.800095691668	0.002
14	220580	69.850095691668	0.001
14	220664	69.900095691668	0.002
14	220671	69.950095691668	0.001
14	220755	70.000095691668	0.002
14	220762	70.050095691668	0.001
14	220846	70.100095691668	0.002
14	220853	70.150095691668	0.001
14	220937	70.200095691668	0.002
14	220944	70.250095691668	0.001
14	221028	70.300095691668	0.002
14	221035	70.350095691668	0.001
14	221119	70.400095691668	0.002
14	221126	70.450095691668	0.001
14	221210	70.500095691668	0.002
14	221217	70.550095691668	0.001
14	221301	70.600095691668	0.002
14	221308	70.650095691668	0.001
14	221392	70.700095691668	0.002
14	221396	70.750095691668	0.001
14	221427	70.800095691668	0.002
14	221431	70.850095691668	0.001
14	221462	70.900095691668	0.002
14	221466	70.950095691668	0.001
14	221497	71.000095691668	0.002
14	221501	71.050095691668	0.001
14	221532	71.100095691668	0.002
14	221536	71.150095691668	0.001
14	221567	71.200095691668	0.002
14	221571	71.250095691668	0.001
14	221602	71.300095691668	0.002
14	221606	71.350095691668	0.001
14	221637	71.400095691668	0.002
14	221641	71.450095691668	0.001
14	221672	71.500095691668	0.002
14	221676	71.550095691668	0.001
14	221707	71.600095691668	0.002
14	221711	71.650095691668	0.001
14	221742	71.700095691668	0.002
14	221746	71.750095691668	0.001
14	221777	71.800095691668	0.002
14	221781	71.850095691668	0.001
14	221812	71.900095691668	0.002
14	221816	71.950095691668	0.001
14	221847	72.000095691668	0.002
14	221851	72.050095691668	0.001
14	221882	72.100095691668	0.002
14	221886	72.150095691668	0.001
14	221917	72.200095691668	0.002
14	221921	72.250095691668	0.001
14	221952	72.300095691668	0.002
14	221956	72.350095691668	0.001
14	221987	72.400095691668	0.002
14	221991	72.450095691668	0.001
14	222022	72.500095691668	0.002
14	222026	72.550095691668	0.001
14	222057	72.600095691668	0.002
14	222061	72.650095691668	0.001
14	222092	72.700095691668	0.002
14	222096	72.750095691668	0.001
14	222127	72.800095691668	0.002
14	222131	72.850095691668	0.001
14	222162	72.900095691668	0.002
14	222166	72.950095691668	0.001
14	222197	73.000095691668	0.002
14	222201	73.050095691668	0.001
14	222232	73.100095691668	0.002
14	222236	73.150095691668	0.001
14	222267	73.200095691668	0.002
14	222271	73.250095691668	0.001
14	222302	73.300095691668	0.002
14	222306	73.350095691668	0.001
14	222337	73.400095691668	0.002
14	222341	73.450095691668	0.001
14	222372	73.500095691668	0.002
14	222376	73.550095691668	0.001
14	222407	73.600095691668	0.002
14	222411	73.650095691668	0.001
14	222442	73.700095691668	0.002
14	222443	73.750095691668	0.001
14	222444	73.800095691668	0.002
14	222445	73.850095691668	0.001
14	222446	73.900095691668	0.002
14	222447	73.950095691668	0.001
14	222448	74.000095691668	0.002
14	222449	74.050095691668	0.001
14	222450	74.100095691668	0.002
14	222451	74.150095691668	0.001
14	222452	74.200095691668	0.002
14	222453	74.250095691668	0.001
14	222454	74.300095691668	0.002
14	222455	74.350095691668	0.001
14	222456	74.400095691668	0.002
14	222457	74.450095691668	0.001
14	222458	74.500095691668	0.002
14	222459	74.550095691668	0.001
14	222460	74.600095691668	0.002
14	222461	74.650095691668	0.001
14	222462	74.700095691668	0.002
14	222463	74.750095691668	0.001
14	222464	74.800095691668	0.002
14	222465	74.850095691668	0.001
14	222466	74.900095691668	0.002
14	222467	74.950095691668	0.001
14	222468	75.000095691668	0.002
14	222469	75.050095691668	0.001
14	222470	75.100095691668	0.002
14	222471	75.150095691668	0.001
14	222472	75.200095691668	0.002
14	222473	75.250095691668	0.001
14	222474	75.300095691668	0.002
14	222475	75.350095691668	0.001
14	222476	75.400095691668	0.002
14	222477	75.450095691668	0.001
14	222478	75.500095691668	0.002
14	222479	75.550095691668	0.001
14	222480	75.600095691668	0.002
14	222481	75.650095691668	0.001
14	222482	75.700095691668	0.002
14	222483	75.750095691668	0.001
14	222484	75.800095691668	0.002
14	222485	75.850095691668	0.001
14	222486	75.900095691668	0.002
14	222487	75.950095691668	0.001
