version 2
run VoIP-30ms_240b-0-20160909-09:32:39-5824
attr configname VoIP-30ms_240b
attr datetime 20160909-09:32:39
attr experiment VoIP-30ms_240b
attr inifile omnetpp.ini
attr iterationvars ""
attr iterationvars2 $repetition=0
attr measurement ""
attr network SymScenerio
attr processid 5824
attr repetition 0
attr replication #0
attr resultdir results
attr runnumber 0
attr seedset 0
param **.coreDebug false
param **.debug false
param *.**.nic.mac1609_4.bitrate 18Mbps
param *.**.nic.mac1609_4.txPower 20mW
param *.**.nic.mac1609_4.useServiceChannel true
param *.**.nic.phy80211p.analogueModels "xmldoc(\"config.xml\")"
param *.**.nic.phy80211p.decider "xmldoc(\"config.xml\")"
param *.**.nic.phy80211p.sensitivity -89dBm
param *.**.nic.phy80211p.thermalNoise -110dBm
param *.**.nic.phy80211p.usePropagationDelay true
param *.**.nic.phy80211p.useThermalNoise true
param *.annotations.draw false
param *.connectionManager.alpha 2.0
param *.connectionManager.carrierFrequency "5.890e9 Hz"
param *.connectionManager.pMax 20mW
param *.connectionManager.sat -89dBm
param *.connectionManager.sendDirect true
param *.manager.autoShutdown true
param *.manager.host "\"localhost\""
param *.manager.launchConfig "xmldoc(\"map.launchd.xml\")"
param *.manager.margin 25
param *.manager.moduleDisplayString "\"\""
param *.manager.moduleName "\"node\""
param *.manager.moduleType "\"symulacja.veins.nodes.Car\""
param *.manager.port 9999
param *.manager.updateInterval 0.1s
param *.node[*].appl.beaconInterval 1s
param *.node[*].appl.beaconPriority 3
param *.node[*].appl.dataOnSch false
param *.node[*].appl.dataPriority 2
param *.node[*].appl.debug false
param *.node[*].appl.maxOffset 0.005s
param *.node[*].appl.sendBeacons false
param *.node[*].appl.sendData true
param *.node[*].appl.sendVoIP true
param *.node[*].appl.voipInterval 0.020s
param *.node[*].appl.voipLengthBits "200 bits"
param *.node[*].appl.voipOnSch true
param *.node[*].appl.voipPriority 3
param *.node[*].applType "\"Sym11p\""
param *.node[*].veinsmobility.x 0
param *.node[*].veinsmobility.y 0
param *.node[*].veinsmobility.z 1.895
param *.node[*].veinsmobilityType "\"symulacja.veins.modules.mobility.traci.TraCIMobility\""
param *.playgroundSizeX 9000m
param *.playgroundSizeY 9000m
param *.playgroundSizeZ 50m
param *.rsu[*].appl.beaconInterval 1s
param *.rsu[*].appl.beaconPriority 3
param *.rsu[*].appl.dataOnSch false
param *.rsu[*].appl.dataPriority 2
param *.rsu[*].appl.debug false
param *.rsu[*].appl.headerLength "256 bit"
param *.rsu[*].appl.maxOffset 0.005s
param *.rsu[*].appl.sendBeacons false
param *.rsu[*].appl.sendData false
param *.rsu[*].appl.sendVoIP false
param *.rsu[*].applType "\"SymRSU11p\""
param *.rsu[0].mobility.x 2160
param *.rsu[0].mobility.y 3100
param *.rsu[0].mobility.z 3
param *.world.use2D false
param *.world.useTorus false

vector 9  SymScenerio.rsu[0].nic.mac1609_4  "Interwały kanałów"  ETV
vector 18  SymScenerio.node[0].veinsmobility  posx  ETV
vector 19  SymScenerio.node[0].veinsmobility  posy  ETV
vector 17  SymScenerio.node[0].nic.mac1609_4  "Interwały kanałów"  ETV
vector 20  SymScenerio.node[0].veinsmobility  speed  ETV
vector 21  SymScenerio.node[0].veinsmobility  acceleration  ETV
vector 22  SymScenerio.node[0].veinsmobility  co2emission  ETV
vector 10  SymScenerio.node[0].appl  "TX Packets"  ETV
vector 11  SymScenerio.node[0].appl  "TX Total"  ETV
vector 12  SymScenerio.node[0].appl  Pakietyzacja  ETV
vector 3  SymScenerio.rsu[0].appl  "RX Packets"  ETV
vector 4  SymScenerio.rsu[0].appl  "RX Packet"  ETV
vector 31  SymScenerio.node[1].veinsmobility  posx  ETV
vector 32  SymScenerio.node[1].veinsmobility  posy  ETV
vector 30  SymScenerio.node[1].nic.mac1609_4  "Interwały kanałów"  ETV
vector 33  SymScenerio.node[1].veinsmobility  speed  ETV
vector 23  SymScenerio.node[1].appl  "TX Packets"  ETV
vector 24  SymScenerio.node[1].appl  "TX Total"  ETV
vector 25  SymScenerio.node[1].appl  Pakietyzacja  ETV
vector 34  SymScenerio.node[1].veinsmobility  acceleration  ETV
vector 35  SymScenerio.node[1].veinsmobility  co2emission  ETV
vector 44  SymScenerio.node[2].veinsmobility  posx  ETV
vector 45  SymScenerio.node[2].veinsmobility  posy  ETV
vector 43  SymScenerio.node[2].nic.mac1609_4  "Interwały kanałów"  ETV
vector 46  SymScenerio.node[2].veinsmobility  speed  ETV
vector 47  SymScenerio.node[2].veinsmobility  acceleration  ETV
vector 48  SymScenerio.node[2].veinsmobility  co2emission  ETV
vector 36  SymScenerio.node[2].appl  "TX Packets"  ETV
vector 37  SymScenerio.node[2].appl  "TX Total"  ETV
vector 38  SymScenerio.node[2].appl  Pakietyzacja  ETV
vector 57  SymScenerio.node[3].veinsmobility  posx  ETV
vector 58  SymScenerio.node[3].veinsmobility  posy  ETV
vector 56  SymScenerio.node[3].nic.mac1609_4  "Interwały kanałów"  ETV
vector 59  SymScenerio.node[3].veinsmobility  speed  ETV
vector 60  SymScenerio.node[3].veinsmobility  acceleration  ETV
vector 61  SymScenerio.node[3].veinsmobility  co2emission  ETV
vector 49  SymScenerio.node[3].appl  "TX Packets"  ETV
vector 50  SymScenerio.node[3].appl  "TX Total"  ETV
vector 51  SymScenerio.node[3].appl  Pakietyzacja  ETV
vector 70  SymScenerio.node[4].veinsmobility  posx  ETV
vector 71  SymScenerio.node[4].veinsmobility  posy  ETV
vector 69  SymScenerio.node[4].nic.mac1609_4  "Interwały kanałów"  ETV
vector 72  SymScenerio.node[4].veinsmobility  speed  ETV
vector 73  SymScenerio.node[4].veinsmobility  acceleration  ETV
vector 74  SymScenerio.node[4].veinsmobility  co2emission  ETV
vector 62  SymScenerio.node[4].appl  "TX Packets"  ETV
vector 63  SymScenerio.node[4].appl  "TX Total"  ETV
vector 64  SymScenerio.node[4].appl  Pakietyzacja  ETV
12	25	0.541827398394	1.002
12	42	0.571827398394	1.002
12	60	0.601827398394	1.002
12	62	0.631827398394	1.002
12	92	0.661827398394	1.002
12	107	0.691827398394	1.002
12	125	0.721827398394	1.002
12	129	0.751827398394	1.002
12	157	0.781827398394	1.002
12	175	0.811827398394	1.002
12	177	0.841827398394	1.002
12	207	0.871827398394	1.002
12	225	0.901827398394	1.002
12	227	0.931827398394	1.002
12	257	0.961827398394	1.002
12	272	0.991827398394	1.002
12	290	1.021827398394	1.002
12	294	1.051827398394	1.002
12	322	1.081827398394	1.002
12	340	1.111827398394	1.002
12	342	1.141827398394	1.002
12	372	1.171827398394	1.002
12	390	1.201827398394	1.002
12	392	1.231827398394	1.002
12	422	1.261827398394	1.002
12	437	1.291827398394	1.002
12	455	1.321827398394	1.002
12	459	1.351827398394	1.002
12	487	1.381827398394	1.002
12	505	1.411827398394	1.002
12	507	1.441827398394	1.002
12	537	1.471827398394	1.002
12	555	1.501827398394	1.002
12	557	1.531827398394	1.002
12	587	1.561827398394	1.002
12	602	1.591827398394	1.002
12	620	1.621827398394	1.002
12	624	1.651827398394	1.002
12	652	1.681827398394	1.002
12	670	1.711827398394	1.002
12	672	1.741827398394	1.002
12	702	1.771827398394	1.002
12	720	1.801827398394	1.002
12	722	1.831827398394	1.002
12	752	1.861827398394	1.002
12	767	1.891827398394	1.002
12	785	1.921827398394	1.002
12	789	1.951827398394	1.002
12	817	1.981827398394	1.002
12	835	2.011827398394	1.002
12	837	2.041827398394	1.002
12	867	2.071827398394	1.002
12	885	2.101827398394	1.002
12	887	2.131827398394	1.002
12	917	2.161827398394	1.002
12	932	2.191827398394	1.002
12	950	2.221827398394	1.002
12	954	2.251827398394	1.002
12	982	2.281827398394	1.002
12	1000	2.311827398394	1.002
12	1002	2.341827398394	1.002
12	1032	2.371827398394	1.002
12	1050	2.401827398394	1.002
12	1052	2.431827398394	1.002
12	1082	2.461827398394	1.002
12	1097	2.491827398394	1.002
12	1115	2.521827398394	1.002
12	1119	2.551827398394	1.002
12	1147	2.581827398394	1.002
12	1165	2.611827398394	1.002
12	1167	2.641827398394	1.002
12	1197	2.671827398394	1.002
12	1215	2.701827398394	1.002
12	1217	2.731827398394	1.002
12	1247	2.761827398394	1.002
12	1262	2.791827398394	1.002
12	1280	2.821827398394	1.002
12	1284	2.851827398394	1.002
12	1312	2.881827398394	1.002
12	1330	2.911827398394	1.002
12	1332	2.941827398394	1.002
12	1362	2.971827398394	1.002
12	1380	3.001827398394	1.002
12	1382	3.031827398394	1.002
12	1412	3.061827398394	1.002
12	1427	3.091827398394	1.002
12	1445	3.121827398394	1.002
12	1450	3.151827398394	1.002
12	1490	3.181827398394	1.002
12	1515	3.211827398394	1.002
12	1517	3.241827398394	1.002
12	1581	3.271827398394	1.002
12	1627	3.301827398394	1.002
12	1631	3.331827398394	1.002
12	1707	3.361827398394	1.002
12	1749	3.391827398394	1.002
12	1776	3.421827398394	1.002
12	1783	3.451827398394	1.002
12	1882	3.481827398394	1.002
12	1928	3.511827398394	1.002
12	1932	3.541827398394	1.002
12	2015	3.571827398394	1.002
12	2061	3.601827398394	1.002
12	2065	3.631827398394	1.002
12	2141	3.661827398394	1.002
12	2183	3.691827398394	1.002
12	2210	3.721827398394	1.002
12	2217	3.751827398394	1.002
12	2316	3.781827398394	1.002
12	2362	3.811827398394	1.002
12	2366	3.841827398394	1.002
12	2449	3.871827398394	1.002
12	2495	3.901827398394	1.002
12	2499	3.931827398394	1.002
12	2582	3.961827398394	1.002
12	2624	3.991827398394	1.002
12	2651	4.021827398394	1.002
12	2658	4.051827398394	1.002
12	2757	4.081827398394	1.002
12	2803	4.111827398394	1.002
12	2807	4.141827398394	1.002
12	2890	4.171827398394	1.002
12	2936	4.201827398394	1.002
12	2940	4.231827398394	1.002
12	3023	4.261827398394	1.002
12	3065	4.291827398394	1.002
12	3092	4.321827398394	1.002
12	3099	4.351827398394	1.002
12	3191	4.381827398394	1.002
12	3237	4.411827398394	1.002
12	3241	4.441827398394	1.002
12	3324	4.471827398394	1.002
12	3370	4.501827398394	1.002
12	3374	4.531827398394	1.002
12	3457	4.561827398394	1.002
12	3499	4.591827398394	1.002
12	3526	4.621827398394	1.002
12	3533	4.651827398394	1.002
12	3632	4.681827398394	1.002
12	3678	4.711827398394	1.002
12	3682	4.741827398394	1.002
12	3765	4.771827398394	1.002
12	3811	4.801827398394	1.002
12	3815	4.831827398394	1.002
12	3891	4.861827398394	1.002
12	3933	4.891827398394	1.002
12	3960	4.921827398394	1.002
12	3967	4.951827398394	1.002
12	4059	4.981827398394	1.002
12	4105	5.011827398394	1.002
12	4109	5.041827398394	1.002
12	4192	5.071827398394	1.002
12	4238	5.101827398394	1.002
12	4242	5.131827398394	1.002
12	4325	5.161827398394	1.002
12	4367	5.191827398394	1.002
12	4394	5.221827398394	1.002
12	4401	5.251827398394	1.002
12	4500	5.281827398394	1.002
12	4546	5.311827398394	1.002
12	4550	5.341827398394	1.002
12	4633	5.371827398394	1.002
12	4679	5.401827398394	1.002
12	4683	5.431827398394	1.002
12	4759	5.461827398394	1.002
12	4801	5.491827398394	1.002
12	4828	5.521827398394	1.002
12	4835	5.551827398394	1.002
12	4934	5.581827398394	1.002
12	4980	5.611827398394	1.002
12	4984	5.641827398394	1.002
12	5067	5.671827398394	1.002
12	5113	5.701827398394	1.002
12	5117	5.731827398394	1.002
12	5193	5.761827398394	1.002
12	5235	5.791827398394	1.002
12	5262	5.821827398394	1.002
12	5269	5.851827398394	1.002
12	5368	5.881827398394	1.002
12	5414	5.911827398394	1.002
12	5418	5.941827398394	1.002
12	5501	5.971827398394	1.002
12	5547	6.001827398394	1.002
12	5551	6.031827398394	1.002
12	5627	6.061827398394	1.002
12	5669	6.091827398394	1.002
12	5696	6.121827398394	1.002
12	5704	6.151827398394	1.002
12	5833	6.181827398394	1.002
12	5892	6.211827398394	1.002
12	5896	6.241827398394	1.002
12	6004	6.271827398394	1.002
12	6063	6.301827398394	1.002
12	6067	6.331827398394	1.002
12	6175	6.361827398394	1.002
12	6229	6.391827398394	1.002
12	6263	6.421827398394	1.002
12	6271	6.451827398394	1.002
12	6400	6.481827398394	1.002
12	6459	6.511827398394	1.002
12	6463	6.541827398394	1.002
12	6571	6.571827398394	1.002
12	6630	6.601827398394	1.002
12	6634	6.631827398394	1.002
12	6732	6.661827398394	1.002
12	6786	6.691827398394	1.002
12	6820	6.721827398394	1.002
12	6828	6.751827398394	1.002
12	6947	6.781827398394	1.002
12	7006	6.811827398394	1.002
12	7010	6.841827398394	1.002
12	7118	6.871827398394	1.002
12	7177	6.901827398394	1.002
12	7181	6.931827398394	1.002
12	7289	6.961827398394	1.002
12	7370	6.991827398394	1.002
12	7406	7.021827398394	1.002
12	7416	7.051827398394	1.002
12	7612	7.081827398394	1.002
12	7698	7.111827398394	1.002
12	7704	7.141827398394	1.002
12	7854	7.171827398394	1.002
12	7940	7.201827398394	1.002
12	7946	7.231827398394	1.002
12	8096	7.261827398394	1.002
12	8177	7.291827398394	1.002
12	8213	7.321827398394	1.002
12	8223	7.351827398394	1.002
12	8429	7.381827398394	1.002
12	8515	7.411827398394	1.002
12	8521	7.441827398394	1.002
12	8671	7.471827398394	1.002
12	8757	7.501827398394	1.002
12	8763	7.531827398394	1.002
12	8913	7.561827398394	1.002
12	8994	7.591827398394	1.002
12	9030	7.621827398394	1.002
12	9040	7.651827398394	1.002
12	9226	7.681827398394	1.002
12	9312	7.711827398394	1.002
12	9318	7.741827398394	1.002
12	9468	7.771827398394	1.002
12	9554	7.801827398394	1.002
12	9560	7.831827398394	1.002
12	9710	7.861827398394	1.002
12	9791	7.891827398394	1.002
12	9827	7.921827398394	1.002
12	9837	7.951827398394	1.002
12	10023	7.981827398394	1.002
12	10109	8.011827398394	1.002
12	10115	8.041827398394	1.002
12	10275	8.071827398394	1.002
12	10361	8.101827398394	1.002
12	10367	8.131827398394	1.002
12	10527	8.161827398394	1.002
12	10608	8.191827398394	1.002
12	10644	8.221827398394	1.002
12	10654	8.251827398394	1.002
12	10850	8.281827398394	1.002
12	10936	8.311827398394	1.002
12	10942	8.341827398394	1.002
12	11102	8.371827398394	1.002
12	11188	8.401827398394	1.002
12	11194	8.431827398394	1.002
12	11334	8.461827398394	1.002
12	11415	8.491827398394	1.002
12	11451	8.521827398394	1.002
12	11461	8.551827398394	1.002
12	11657	8.581827398394	1.002
12	11743	8.611827398394	1.002
12	11749	8.641827398394	1.002
12	11909	8.671827398394	1.002
12	11995	8.701827398394	1.002
12	12001	8.731827398394	1.002
12	12151	8.761827398394	1.002
12	12232	8.791827398394	1.002
12	12268	8.821827398394	1.002
12	12278	8.851827398394	1.002
12	12467	8.881827398394	1.002
12	12553	8.911827398394	1.002
12	12559	8.941827398394	1.002
12	12719	8.971827398394	1.002
12	12805	9.001827398394	1.002
12	12811	9.031827398394	1.002
12	12971	9.061827398394	1.002
12	13052	9.091827398394	1.002
12	13088	9.121827398394	1.002
12	13099	9.151827398394	1.002
12	13340	9.181827398394	1.002
12	13445	9.211827398394	1.002
12	13451	9.241827398394	1.002
12	13636	9.271827398394	1.002
12	13741	9.301827398394	1.002
12	13747	9.331827398394	1.002
12	13919	9.361827398394	1.002
12	14018	9.391827398394	1.002
12	14061	9.421827398394	1.002
12	14072	9.451827398394	1.002
12	14313	9.481827398394	1.002
12	14418	9.511827398394	1.002
12	14424	9.541827398394	1.002
12	14642	9.571827398394	1.002
12	14780	9.601827398394	1.002
12	14788	9.631827398394	1.002
12	15014	9.661827398394	1.002
12	15146	9.691827398394	1.002
12	15191	9.721827398394	1.002
12	15204	9.751827398394	1.002
12	15541	9.781827398394	1.002
12	15679	9.811827398394	1.002
12	15687	9.841827398394	1.002
12	15948	9.871827398394	1.002
12	16086	9.901827398394	1.002
12	16094	9.931827398394	1.002
12	16329	9.961827398394	1.002
12	16461	9.991827398394	1.002
12	16506	10.021827398394	1.002
12	16519	10.051827398394	1.002
12	16868	10.081827398394	1.002
12	17006	10.111827398394	1.002
12	17014	10.141827398394	1.002
12	17263	10.171827398394	1.002
12	17401	10.201827398394	1.002
12	17409	10.231827398394	1.002
12	17657	10.261827398394	1.002
12	17789	10.291827398394	1.002
12	17834	10.321827398394	1.002
12	17847	10.351827398394	1.002
12	18174	10.381827398394	1.002
12	18312	10.411827398394	1.002
12	18320	10.441827398394	1.002
12	18568	10.471827398394	1.002
12	18706	10.501827398394	1.002
12	18714	10.531827398394	1.002
12	18949	10.561827398394	1.002
12	19081	10.591827398394	1.002
12	19126	10.621827398394	1.002
12	19139	10.651827398394	1.002
12	19466	10.681827398394	1.002
12	19604	10.711827398394	1.002
12	19612	10.741827398394	1.002
12	19873	10.771827398394	1.002
12	20011	10.801827398394	1.002
12	20019	10.831827398394	1.002
12	20267	10.861827398394	1.002
12	20399	10.891827398394	1.002
12	20444	10.921827398394	1.002
12	20457	10.951827398394	1.002
12	20780	10.981827398394	1.002
12	20918	11.011827398394	1.002
12	20926	11.041827398394	1.002
12	21187	11.071827398394	1.002
12	21325	11.101827398394	1.002
12	21333	11.131827398394	1.002
12	21581	11.161827398394	1.002
12	21713	11.191827398394	1.002
12	21758	11.221827398394	1.002
12	21771	11.251827398394	1.002
12	22120	11.281827398394	1.002
12	22258	11.311827398394	1.002
12	22266	11.341827398394	1.002
12	22514	11.371827398394	1.002
12	22652	11.401827398394	1.002
12	22660	11.431827398394	1.002
12	22895	11.461827398394	1.002
12	23027	11.491827398394	1.002
12	23072	11.521827398394	1.002
12	23085	11.551827398394	1.002
12	23408	11.581827398394	1.002
12	23546	11.611827398394	1.002
12	23554	11.641827398394	1.002
12	23802	11.671827398394	1.002
12	23940	11.701827398394	1.002
12	23948	11.731827398394	1.002
12	24170	11.761827398394	1.002
12	24302	11.791827398394	1.002
12	24347	11.821827398394	1.002
12	24360	11.851827398394	1.002
12	24709	11.881827398394	1.002
12	24847	11.911827398394	1.002
12	24855	11.941827398394	1.002
12	25116	11.971827398394	1.002
12	25254	12.001827398394	1.002
12	25262	12.031827398394	1.002
12	25497	12.061827398394	1.002
12	25629	12.091827398394	1.002
12	25674	12.121827398394	1.002
12	25688	12.151827398394	1.002
12	26087	12.181827398394	1.002
12	26250	12.211827398394	1.002
12	26258	12.241827398394	1.002
12	26552	12.271827398394	1.002
12	26715	12.301827398394	1.002
12	26723	12.331827398394	1.002
12	27033	12.361827398394	1.002
12	27189	12.391827398394	1.002
12	27241	12.421827398394	1.002
12	27255	12.451827398394	1.002
12	27693	12.481827398394	1.002
12	27858	12.511827398394	1.002
12	27868	12.541827398394	1.002
12	28276	12.571827398394	1.002
12	28478	12.601827398394	1.002
12	28488	12.631827398394	1.002
12	28826	12.661827398394	1.002
12	29021	12.691827398394	1.002
12	29075	12.721827398394	1.002
12	29091	12.751827398394	1.002
12	29571	12.781827398394	1.002
12	29736	12.811827398394	1.002
12	29746	12.841827398394	1.002
12	30123	12.871827398394	1.002
12	30325	12.901827398394	1.002
12	30335	12.931827398394	1.002
12	30678	12.961827398394	1.002
12	30873	12.991827398394	1.002
12	30927	13.021827398394	1.002
12	30943	13.051827398394	1.002
12	31423	13.081827398394	1.002
12	31588	13.111827398394	1.002
12	31598	13.141827398394	1.002
12	32005	13.171827398394	1.002
12	32207	13.201827398394	1.002
12	32217	13.231827398394	1.002
12	32556	13.261827398394	1.002
12	32751	13.291827398394	1.002
12	32805	13.321827398394	1.002
12	32821	13.351827398394	1.002
12	33290	13.381827398394	1.002
12	33455	13.411827398394	1.002
12	33465	13.441827398394	1.002
12	33873	13.471827398394	1.002
12	34075	13.501827398394	1.002
12	34085	13.531827398394	1.002
12	34440	13.561827398394	1.002
12	34635	13.591827398394	1.002
12	34689	13.621827398394	1.002
12	34705	13.651827398394	1.002
12	35174	13.681827398394	1.002
12	35339	13.711827398394	1.002
12	35349	13.741827398394	1.002
12	35757	13.771827398394	1.002
12	35959	13.801827398394	1.002
12	35969	13.831827398394	1.002
12	36324	13.861827398394	1.002
12	36519	13.891827398394	1.002
12	36573	13.921827398394	1.002
12	36589	13.951827398394	1.002
12	37085	13.981827398394	1.002
12	37250	14.011827398394	1.002
12	37260	14.041827398394	1.002
12	37635	14.071827398394	1.002
12	37837	14.101827398394	1.002
12	37847	14.131827398394	1.002
12	38191	14.161827398394	1.002
12	38386	14.191827398394	1.002
12	38440	14.221827398394	1.002
12	38456	14.251827398394	1.002
12	38936	14.281827398394	1.002
12	39101	14.311827398394	1.002
12	39111	14.341827398394	1.002
12	39507	14.371827398394	1.002
12	39709	14.401827398394	1.002
12	39719	14.431827398394	1.002
12	40078	14.461827398394	1.002
12	40273	14.491827398394	1.002
12	40327	14.521827398394	1.002
12	40343	14.551827398394	1.002
12	40823	14.581827398394	1.002
12	40988	14.611827398394	1.002
12	40998	14.641827398394	1.002
12	41389	14.671827398394	1.002
12	41591	14.701827398394	1.002
12	41601	14.731827398394	1.002
12	41955	14.761827398394	1.002
12	42150	14.791827398394	1.002
12	42204	14.821827398394	1.002
12	42220	14.851827398394	1.002
12	42716	14.881827398394	1.002
12	42881	14.911827398394	1.002
12	42891	14.941827398394	1.002
12	43287	14.971827398394	1.002
12	43489	15.001827398394	1.002
12	43499	15.031827398394	1.002
12	43853	15.061827398394	1.002
12	44048	15.091827398394	1.002
12	44102	15.121827398394	1.002
12	44118	15.151827398394	1.002
12	44619	15.181827398394	1.002
12	44784	15.211827398394	1.002
12	44794	15.241827398394	1.002
12	45185	15.271827398394	1.002
12	45387	15.301827398394	1.002
12	45397	15.331827398394	1.002
12	45735	15.361827398394	1.002
12	45930	15.391827398394	1.002
12	45984	15.421827398394	1.002
12	46000	15.451827398394	1.002
12	46474	15.481827398394	1.002
12	46639	15.511827398394	1.002
12	46649	15.541827398394	1.002
12	47056	15.571827398394	1.002
12	47258	15.601827398394	1.002
12	47268	15.631827398394	1.002
12	47622	15.661827398394	1.002
12	47817	15.691827398394	1.002
12	47871	15.721827398394	1.002
12	47887	15.751827398394	1.002
12	48383	15.781827398394	1.002
12	48548	15.811827398394	1.002
12	48558	15.841827398394	1.002
12	48949	15.871827398394	1.002
12	49151	15.901827398394	1.002
12	49161	15.931827398394	1.002
12	49504	15.961827398394	1.002
12	49699	15.991827398394	1.002
12	49753	16.021827398394	1.002
12	49769	16.051827398394	1.002
12	50249	16.081827398394	1.002
12	50414	16.111827398394	1.002
12	50424	16.141827398394	1.002
12	50831	16.171827398394	1.002
12	51033	16.201827398394	1.002
12	51043	16.231827398394	1.002
12	51386	16.261827398394	1.002
12	51581	16.291827398394	1.002
12	51635	16.321827398394	1.002
12	51651	16.351827398394	1.002
12	52147	16.381827398394	1.002
12	52312	16.411827398394	1.002
12	52322	16.441827398394	1.002
12	52718	16.471827398394	1.002
12	52920	16.501827398394	1.002
12	52930	16.531827398394	1.002
12	53273	16.561827398394	1.002
12	53468	16.591827398394	1.002
12	53522	16.621827398394	1.002
12	53538	16.651827398394	1.002
12	54034	16.681827398394	1.002
12	54199	16.711827398394	1.002
12	54209	16.741827398394	1.002
12	54600	16.771827398394	1.002
12	54802	16.801827398394	1.002
12	54812	16.831827398394	1.002
12	55166	16.861827398394	1.002
12	55361	16.891827398394	1.002
12	55415	16.921827398394	1.002
12	55431	16.951827398394	1.002
12	55927	16.981827398394	1.002
12	56092	17.011827398394	1.002
12	56102	17.041827398394	1.002
12	56493	17.071827398394	1.002
12	56695	17.101827398394	1.002
12	56705	17.131827398394	1.002
12	57043	17.161827398394	1.002
12	57238	17.191827398394	1.002
12	57292	17.221827398394	1.002
12	57308	17.251827398394	1.002
12	57820	17.281827398394	1.002
12	57985	17.311827398394	1.002
12	57995	17.341827398394	1.002
12	58386	17.371827398394	1.002
12	58588	17.401827398394	1.002
12	58598	17.431827398394	1.002
12	58925	17.461827398394	1.002
12	59120	17.491827398394	1.002
12	59174	17.521827398394	1.002
12	59190	17.551827398394	1.002
12	59680	17.581827398394	1.002
12	59845	17.611827398394	1.002
12	59855	17.641827398394	1.002
12	60246	17.671827398394	1.002
12	60448	17.701827398394	1.002
12	60458	17.731827398394	1.002
12	60790	17.761827398394	1.002
12	60985	17.791827398394	1.002
12	61039	17.821827398394	1.002
12	61055	17.851827398394	1.002
12	61535	17.881827398394	1.002
12	61700	17.911827398394	1.002
12	61710	17.941827398394	1.002
12	62117	17.971827398394	1.002
12	62319	18.001827398394	1.002
12	62329	18.031827398394	1.002
12	62672	18.061827398394	1.002
12	62867	18.091827398394	1.002
12	62921	18.121827398394	1.002
12	62937	18.151827398394	1.002
12	63417	18.181827398394	1.002
12	63582	18.211827398394	1.002
12	63592	18.241827398394	1.002
12	63983	18.271827398394	1.002
12	64185	18.301827398394	1.002
12	64195	18.331827398394	1.002
12	64533	18.361827398394	1.002
12	64728	18.391827398394	1.002
12	64782	18.421827398394	1.002
12	64798	18.451827398394	1.002
12	65283	18.481827398394	1.002
12	65448	18.511827398394	1.002
12	65458	18.541827398394	1.002
12	65849	18.571827398394	1.002
12	66051	18.601827398394	1.002
12	66061	18.631827398394	1.002
12	66399	18.661827398394	1.002
12	66594	18.691827398394	1.002
12	66648	18.721827398394	1.002
12	66664	18.751827398394	1.002
12	67160	18.781827398394	1.002
12	67325	18.811827398394	1.002
12	67335	18.841827398394	1.002
12	67742	18.871827398394	1.002
12	67944	18.901827398394	1.002
12	67954	18.931827398394	1.002
12	68281	18.961827398394	1.002
12	68476	18.991827398394	1.002
12	68530	19.021827398394	1.002
12	68546	19.051827398394	1.002
12	69031	19.081827398394	1.002
12	69196	19.111827398394	1.002
12	69206	19.141827398394	1.002
12	69629	19.171827398394	1.002
12	69831	19.201827398394	1.002
12	69841	19.231827398394	1.002
12	70195	19.261827398394	1.002
12	70390	19.291827398394	1.002
12	70444	19.321827398394	1.002
12	70460	19.351827398394	1.002
12	70956	19.381827398394	1.002
12	71121	19.411827398394	1.002
12	71131	19.441827398394	1.002
12	71522	19.471827398394	1.002
12	71724	19.501827398394	1.002
12	71734	19.531827398394	1.002
12	72072	19.561827398394	1.002
12	72267	19.591827398394	1.002
12	72321	19.621827398394	1.002
12	72337	19.651827398394	1.002
12	72811	19.681827398394	1.002
12	72976	19.711827398394	1.002
12	72986	19.741827398394	1.002
12	73377	19.771827398394	1.002
12	73579	19.801827398394	1.002
12	73589	19.831827398394	1.002
12	73943	19.861827398394	1.002
12	74138	19.891827398394	1.002
12	74192	19.921827398394	1.002
12	74208	19.951827398394	1.002
12	74688	19.981827398394	1.002
12	74853	20.011827398394	1.002
12	74863	20.041827398394	1.002
12	75254	20.071827398394	1.002
12	75456	20.101827398394	1.002
12	75466	20.131827398394	1.002
12	75820	20.161827398394	1.002
12	76015	20.191827398394	1.002
12	76069	20.221827398394	1.002
12	76085	20.251827398394	1.002
12	76581	20.281827398394	1.002
12	76746	20.311827398394	1.002
12	76756	20.341827398394	1.002
12	77136	20.371827398394	1.002
12	77338	20.401827398394	1.002
12	77348	20.431827398394	1.002
12	77686	20.461827398394	1.002
12	77881	20.491827398394	1.002
12	77935	20.521827398394	1.002
12	77951	20.551827398394	1.002
12	78447	20.581827398394	1.002
12	78612	20.611827398394	1.002
12	78622	20.641827398394	1.002
12	79029	20.671827398394	1.002
12	79231	20.701827398394	1.002
12	79241	20.731827398394	1.002
12	79579	20.761827398394	1.002
12	79774	20.791827398394	1.002
12	79828	20.821827398394	1.002
12	79844	20.851827398394	1.002
12	80313	20.881827398394	1.002
12	80478	20.911827398394	1.002
12	80488	20.941827398394	1.002
12	80879	20.971827398394	1.002
12	81081	21.001827398394	1.002
12	81091	21.031827398394	1.002
12	81439	21.061827398394	1.002
12	81634	21.091827398394	1.002
12	81688	21.121827398394	1.002
12	81704	21.151827398394	1.002
12	82200	21.181827398394	1.002
12	82365	21.211827398394	1.002
12	82375	21.241827398394	1.002
12	82766	21.271827398394	1.002
12	82968	21.301827398394	1.002
12	82978	21.331827398394	1.002
12	83321	21.361827398394	1.002
12	83516	21.391827398394	1.002
12	83570	21.421827398394	1.002
12	83586	21.451827398394	1.002
12	84050	21.481827398394	1.002
12	84215	21.511827398394	1.002
12	84225	21.541827398394	1.002
12	84632	21.571827398394	1.002
12	84834	21.601827398394	1.002
12	84844	21.631827398394	1.002
12	85198	21.661827398394	1.002
12	85393	21.691827398394	1.002
12	85447	21.721827398394	1.002
12	85463	21.751827398394	1.002
12	85959	21.781827398394	1.002
12	86124	21.811827398394	1.002
12	86134	21.841827398394	1.002
12	86541	21.871827398394	1.002
12	86743	21.901827398394	1.002
12	86753	21.931827398394	1.002
12	87085	21.961827398394	1.002
12	87280	21.991827398394	1.002
12	87334	22.021827398394	1.002
12	87350	22.051827398394	1.002
12	87862	22.081827398394	1.002
12	88027	22.111827398394	1.002
12	88037	22.141827398394	1.002
12	88444	22.171827398394	1.002
12	88646	22.201827398394	1.002
12	88656	22.231827398394	1.002
12	89015	22.261827398394	1.002
12	89210	22.291827398394	1.002
12	89264	22.321827398394	1.002
12	89280	22.351827398394	1.002
12	89765	22.381827398394	1.002
12	89930	22.411827398394	1.002
12	89940	22.441827398394	1.002
12	90331	22.471827398394	1.002
12	90533	22.501827398394	1.002
12	90543	22.531827398394	1.002
12	90897	22.561827398394	1.002
12	91092	22.591827398394	1.002
12	91146	22.621827398394	1.002
12	91162	22.651827398394	1.002
12	91658	22.681827398394	1.002
12	91823	22.711827398394	1.002
12	91833	22.741827398394	1.002
12	92229	22.771827398394	1.002
12	92431	22.801827398394	1.002
12	92441	22.831827398394	1.002
12	92789	22.861827398394	1.002
12	92984	22.891827398394	1.002
12	93038	22.921827398394	1.002
12	93054	22.951827398394	1.002
12	93528	22.981827398394	1.002
12	93693	23.011827398394	1.002
12	93703	23.041827398394	1.002
12	94110	23.071827398394	1.002
12	94312	23.101827398394	1.002
12	94322	23.131827398394	1.002
12	94676	23.161827398394	1.002
12	94871	23.191827398394	1.002
12	94925	23.221827398394	1.002
12	94941	23.251827398394	1.002
12	95421	23.281827398394	1.002
12	95586	23.311827398394	1.002
12	95596	23.341827398394	1.002
12	95987	23.371827398394	1.002
12	96189	23.401827398394	1.002
12	96199	23.431827398394	1.002
12	96558	23.461827398394	1.002
12	96753	23.491827398394	1.002
12	96807	23.521827398394	1.002
12	96823	23.551827398394	1.002
12	97324	23.581827398394	1.002
12	97489	23.611827398394	1.002
12	97499	23.641827398394	1.002
12	97890	23.671827398394	1.002
12	98092	23.701827398394	1.002
12	98102	23.731827398394	1.002
12	98429	23.761827398394	1.002
12	98624	23.791827398394	1.002
12	98678	23.821827398394	1.002
12	98694	23.851827398394	1.002
12	99190	23.881827398394	1.002
12	99355	23.911827398394	1.002
12	99365	23.941827398394	1.002
12	99772	23.971827398394	1.002
12	99974	24.001827398394	1.002
12	99984	24.031827398394	1.002
12	100327	24.061827398394	1.002
12	100522	24.091827398394	1.002
12	100576	24.121827398394	1.002
12	100592	24.151827398394	1.002
12	101093	24.181827398394	1.002
12	101258	24.211827398394	1.002
12	101268	24.241827398394	1.002
12	101648	24.271827398394	1.002
12	101850	24.301827398394	1.002
12	101860	24.331827398394	1.002
12	102187	24.361827398394	1.002
12	102382	24.391827398394	1.002
12	102436	24.421827398394	1.002
12	102452	24.451827398394	1.002
12	102937	24.481827398394	1.002
12	103102	24.511827398394	1.002
12	103112	24.541827398394	1.002
12	103503	24.571827398394	1.002
12	103705	24.601827398394	1.002
12	103715	24.631827398394	1.002
12	104053	24.661827398394	1.002
12	104248	24.691827398394	1.002
12	104302	24.721827398394	1.002
12	104318	24.751827398394	1.002
12	104798	24.781827398394	1.002
12	104963	24.811827398394	1.002
12	104973	24.841827398394	1.002
12	105353	24.871827398394	1.002
12	105555	24.901827398394	1.002
12	105565	24.931827398394	1.002
12	105913	24.961827398394	1.002
12	106108	24.991827398394	1.002
12	106162	25.021827398394	1.002
12	106178	25.051827398394	1.002
12	106658	25.081827398394	1.002
12	106823	25.111827398394	1.002
12	106833	25.141827398394	1.002
12	107224	25.171827398394	1.002
12	107426	25.201827398394	1.002
12	107436	25.231827398394	1.002
12	107768	25.261827398394	1.002
12	107963	25.291827398394	1.002
12	108017	25.321827398394	1.002
12	108033	25.351827398394	1.002
12	108529	25.381827398394	1.002
12	108694	25.411827398394	1.002
12	108704	25.441827398394	1.002
12	109095	25.471827398394	1.002
12	109297	25.501827398394	1.002
12	109307	25.531827398394	1.002
12	109661	25.561827398394	1.002
12	109856	25.591827398394	1.002
12	109910	25.621827398394	1.002
12	109926	25.651827398394	1.002
12	110422	25.681827398394	1.002
12	110587	25.711827398394	1.002
12	110597	25.741827398394	1.002
12	110988	25.771827398394	1.002
12	111190	25.801827398394	1.002
12	111200	25.831827398394	1.002
12	111538	25.861827398394	1.002
12	111733	25.891827398394	1.002
12	111787	25.921827398394	1.002
12	111803	25.951827398394	1.002
12	112288	25.981827398394	1.002
12	112453	26.011827398394	1.002
12	112463	26.041827398394	1.002
12	112870	26.071827398394	1.002
12	113072	26.101827398394	1.002
12	113082	26.131827398394	1.002
12	113441	26.161827398394	1.002
12	113636	26.191827398394	1.002
12	113690	26.221827398394	1.002
12	113706	26.251827398394	1.002
12	114191	26.281827398394	1.002
12	114356	26.311827398394	1.002
12	114366	26.341827398394	1.002
12	114757	26.371827398394	1.002
12	114959	26.401827398394	1.002
12	114969	26.431827398394	1.002
12	115328	26.461827398394	1.002
12	115523	26.491827398394	1.002
12	115577	26.521827398394	1.002
12	115593	26.551827398394	1.002
12	116062	26.581827398394	1.002
12	116227	26.611827398394	1.002
12	116237	26.641827398394	1.002
12	116633	26.671827398394	1.002
12	116835	26.701827398394	1.002
12	116845	26.731827398394	1.002
12	117172	26.761827398394	1.002
12	117367	26.791827398394	1.002
12	117421	26.821827398394	1.002
12	117437	26.851827398394	1.002
12	117911	26.881827398394	1.002
12	118076	26.911827398394	1.002
12	118086	26.941827398394	1.002
12	118493	26.971827398394	1.002
12	118695	27.001827398394	1.002
12	118705	27.031827398394	1.002
12	119048	27.061827398394	1.002
12	119243	27.091827398394	1.002
12	119297	27.121827398394	1.002
12	119313	27.151827398394	1.002
12	119787	27.181827398394	1.002
12	119952	27.211827398394	1.002
12	119962	27.241827398394	1.002
12	120358	27.271827398394	1.002
12	120560	27.301827398394	1.002
12	120570	27.331827398394	1.002
12	120913	27.361827398394	1.002
12	121108	27.391827398394	1.002
12	121162	27.421827398394	1.002
12	121178	27.451827398394	1.002
12	121663	27.481827398394	1.002
12	121828	27.511827398394	1.002
12	121838	27.541827398394	1.002
12	122229	27.571827398394	1.002
12	122431	27.601827398394	1.002
12	122441	27.631827398394	1.002
12	122773	27.661827398394	1.002
12	122968	27.691827398394	1.002
12	123022	27.721827398394	1.002
12	123038	27.751827398394	1.002
12	123534	27.781827398394	1.002
12	123699	27.811827398394	1.002
12	123709	27.841827398394	1.002
12	124116	27.871827398394	1.002
12	124318	27.901827398394	1.002
12	124328	27.931827398394	1.002
12	124682	27.961827398394	1.002
12	124877	27.991827398394	1.002
12	124931	28.021827398394	1.002
12	124947	28.051827398394	1.002
12	125421	28.081827398394	1.002
12	125586	28.111827398394	1.002
12	125596	28.141827398394	1.002
12	126003	28.171827398394	1.002
12	126205	28.201827398394	1.002
12	126215	28.231827398394	1.002
12	126558	28.261827398394	1.002
12	126753	28.291827398394	1.002
12	126807	28.321827398394	1.002
12	126823	28.351827398394	1.002
12	127319	28.381827398394	1.002
12	127484	28.411827398394	1.002
12	127494	28.441827398394	1.002
12	127901	28.471827398394	1.002
12	128103	28.501827398394	1.002
12	128113	28.531827398394	1.002
12	128467	28.561827398394	1.002
12	128662	28.591827398394	1.002
12	128716	28.621827398394	1.002
12	128732	28.651827398394	1.002
12	129217	28.681827398394	1.002
12	129382	28.711827398394	1.002
12	129392	28.741827398394	1.002
12	129783	28.771827398394	1.002
12	129985	28.801827398394	1.002
12	129995	28.831827398394	1.002
12	130333	28.861827398394	1.002
12	130528	28.891827398394	1.002
12	130582	28.921827398394	1.002
12	130598	28.951827398394	1.002
12	131067	28.981827398394	1.002
12	131232	29.011827398394	1.002
12	131242	29.041827398394	1.002
12	131633	29.071827398394	1.002
12	131835	29.101827398394	1.002
12	131845	29.131827398394	1.002
12	132188	29.161827398394	1.002
12	132383	29.191827398394	1.002
12	132437	29.221827398394	1.002
12	132453	29.251827398394	1.002
12	132938	29.281827398394	1.002
12	133103	29.311827398394	1.002
12	133113	29.341827398394	1.002
12	133504	29.371827398394	1.002
12	133706	29.401827398394	1.002
12	133716	29.431827398394	1.002
12	134059	29.461827398394	1.002
12	134254	29.491827398394	1.002
12	134308	29.521827398394	1.002
12	134324	29.551827398394	1.002
12	134809	29.581827398394	1.002
12	134974	29.611827398394	1.002
12	134984	29.641827398394	1.002
12	135380	29.671827398394	1.002
12	135582	29.701827398394	1.002
12	135592	29.731827398394	1.002
12	135914	29.761827398394	1.002
12	136109	29.791827398394	1.002
12	136163	29.821827398394	1.002
12	136179	29.851827398394	1.002
12	136675	29.881827398394	1.002
12	136840	29.911827398394	1.002
12	136850	29.941827398394	1.002
12	137257	29.971827398394	1.002
12	137459	30.001827398394	1.002
12	137469	30.031827398394	1.002
12	137812	30.061827398394	1.002
12	138007	30.091827398394	1.002
12	138061	30.121827398394	1.002
12	138077	30.151827398394	1.002
12	138589	30.181827398394	1.002
12	138754	30.211827398394	1.002
12	138764	30.241827398394	1.002
12	139155	30.271827398394	1.002
12	139357	30.301827398394	1.002
12	139367	30.331827398394	1.002
12	139721	30.361827398394	1.002
12	139916	30.391827398394	1.002
12	139970	30.421827398394	1.002
12	139986	30.451827398394	1.002
12	140482	30.481827398394	1.002
12	140647	30.511827398394	1.002
12	140657	30.541827398394	1.002
12	141080	30.571827398394	1.002
12	141282	30.601827398394	1.002
12	141292	30.631827398394	1.002
12	141646	30.661827398394	1.002
12	141841	30.691827398394	1.002
12	141895	30.721827398394	1.002
12	141911	30.751827398394	1.002
12	142391	30.781827398394	1.002
12	142556	30.811827398394	1.002
12	142566	30.841827398394	1.002
12	142957	30.871827398394	1.002
12	143159	30.901827398394	1.002
12	143169	30.931827398394	1.002
12	143496	30.961827398394	1.002
12	143691	30.991827398394	1.002
12	143745	31.021827398394	1.002
12	143761	31.051827398394	1.002
12	144235	31.081827398394	1.002
12	144400	31.111827398394	1.002
12	144410	31.141827398394	1.002
12	144806	31.171827398394	1.002
12	145008	31.201827398394	1.002
12	145018	31.231827398394	1.002
12	145372	31.261827398394	1.002
12	145567	31.291827398394	1.002
12	145621	31.321827398394	1.002
12	145637	31.351827398394	1.002
12	146133	31.381827398394	1.002
12	146298	31.411827398394	1.002
12	146308	31.441827398394	1.002
12	146699	31.471827398394	1.002
12	146901	31.501827398394	1.002
12	146911	31.531827398394	1.002
12	147265	31.561827398394	1.002
12	147460	31.591827398394	1.002
12	147514	31.621827398394	1.002
12	147530	31.651827398394	1.002
12	148026	31.681827398394	1.002
12	148191	31.711827398394	1.002
12	148201	31.741827398394	1.002
12	148608	31.771827398394	1.002
12	148810	31.801827398394	1.002
12	148820	31.831827398394	1.002
12	149147	31.861827398394	1.002
12	149342	31.891827398394	1.002
12	149396	31.921827398394	1.002
12	149412	31.951827398394	1.002
12	149892	31.981827398394	1.002
12	150057	32.011827398394	1.002
12	150067	32.041827398394	1.002
12	150474	32.071827398394	1.002
12	150676	32.101827398394	1.002
12	150686	32.131827398394	1.002
12	151024	32.161827398394	1.002
12	151219	32.191827398394	1.002
12	151273	32.221827398394	1.002
12	151289	32.251827398394	1.002
12	151774	32.281827398394	1.002
12	151939	32.311827398394	1.002
12	151949	32.341827398394	1.002
12	152356	32.371827398394	1.002
12	152558	32.401827398394	1.002
12	152568	32.431827398394	1.002
12	152900	32.461827398394	1.002
12	153095	32.491827398394	1.002
12	153149	32.521827398394	1.002
12	153165	32.551827398394	1.002
12	153650	32.581827398394	1.002
12	153815	32.611827398394	1.002
12	153825	32.641827398394	1.002
12	154216	32.671827398394	1.002
12	154418	32.701827398394	1.002
12	154428	32.731827398394	1.002
12	154771	32.761827398394	1.002
12	154966	32.791827398394	1.002
12	155020	32.821827398394	1.002
12	155036	32.851827398394	1.002
12	155548	32.881827398394	1.002
12	155713	32.911827398394	1.002
12	155723	32.941827398394	1.002
12	156146	32.971827398394	1.002
12	156348	33.001827398394	1.002
12	156358	33.031827398394	1.002
12	156712	33.061827398394	1.002
12	156907	33.091827398394	1.002
12	156961	33.121827398394	1.002
12	156977	33.151827398394	1.002
12	157462	33.181827398394	1.002
12	157627	33.211827398394	1.002
12	157637	33.241827398394	1.002
12	158028	33.271827398394	1.002
12	158230	33.301827398394	1.002
12	158240	33.331827398394	1.002
12	158594	33.361827398394	1.002
12	158789	33.391827398394	1.002
12	158843	33.421827398394	1.002
12	158859	33.451827398394	1.002
12	159349	33.481827398394	1.002
12	159514	33.511827398394	1.002
12	159524	33.541827398394	1.002
12	159915	33.571827398394	1.002
12	160117	33.601827398394	1.002
12	160127	33.631827398394	1.002
12	160481	33.661827398394	1.002
12	160676	33.691827398394	1.002
12	160730	33.721827398394	1.002
12	160746	33.751827398394	1.002
12	161242	33.781827398394	1.002
12	161407	33.811827398394	1.002
12	161417	33.841827398394	1.002
12	161808	33.871827398394	1.002
12	162010	33.901827398394	1.002
12	162020	33.931827398394	1.002
12	162358	33.961827398394	1.002
12	162553	33.991827398394	1.002
12	162607	34.021827398394	1.002
12	162623	34.051827398394	1.002
12	163103	34.081827398394	1.002
12	163268	34.111827398394	1.002
12	163278	34.141827398394	1.002
12	163658	34.171827398394	1.002
12	163860	34.201827398394	1.002
12	163870	34.231827398394	1.002
12	164213	34.261827398394	1.002
12	164408	34.291827398394	1.002
12	164462	34.321827398394	1.002
12	164478	34.351827398394	1.002
12	164963	34.381827398394	1.002
12	165128	34.411827398394	1.002
12	165138	34.441827398394	1.002
12	165534	34.471827398394	1.002
12	165736	34.501827398394	1.002
12	165746	34.531827398394	1.002
12	166094	34.561827398394	1.002
12	166289	34.591827398394	1.002
12	166343	34.621827398394	1.002
12	166359	34.651827398394	1.002
12	166838	34.681827398394	1.002
12	167003	34.711827398394	1.002
12	167013	34.741827398394	1.002
12	167409	34.771827398394	1.002
12	167611	34.801827398394	1.002
12	167621	34.831827398394	1.002
12	167975	34.861827398394	1.002
12	168170	34.891827398394	1.002
12	168224	34.921827398394	1.002
12	168240	34.951827398394	1.002
12	168725	34.981827398394	1.002
12	168890	35.011827398394	1.002
12	168900	35.041827398394	1.002
12	169323	35.071827398394	1.002
12	169525	35.101827398394	1.002
12	169535	35.131827398394	1.002
12	169878	35.161827398394	1.002
12	170073	35.191827398394	1.002
12	170127	35.221827398394	1.002
12	170143	35.251827398394	1.002
12	170623	35.281827398394	1.002
12	170788	35.311827398394	1.002
12	170798	35.341827398394	1.002
12	171194	35.371827398394	1.002
12	171396	35.401827398394	1.002
12	171406	35.431827398394	1.002
12	171760	35.461827398394	1.002
12	171955	35.491827398394	1.002
12	172009	35.521827398394	1.002
12	172025	35.551827398394	1.002
12	172537	35.581827398394	1.002
12	172702	35.611827398394	1.002
12	172712	35.641827398394	1.002
12	173103	35.671827398394	1.002
12	173305	35.701827398394	1.002
12	173315	35.731827398394	1.002
12	173653	35.761827398394	1.002
12	173848	35.791827398394	1.002
12	173902	35.821827398394	1.002
12	173918	35.851827398394	1.002
12	174414	35.881827398394	1.002
12	174579	35.911827398394	1.002
12	174589	35.941827398394	1.002
12	174985	35.971827398394	1.002
12	175187	36.001827398394	1.002
12	175197	36.031827398394	1.002
12	175551	36.061827398394	1.002
12	175746	36.091827398394	1.002
12	175800	36.121827398394	1.002
12	175816	36.151827398394	1.002
12	176301	36.181827398394	1.002
12	176466	36.211827398394	1.002
12	176476	36.241827398394	1.002
12	176883	36.271827398394	1.002
12	177085	36.301827398394	1.002
12	177095	36.331827398394	1.002
12	177449	36.361827398394	1.002
12	177644	36.391827398394	1.002
12	177698	36.421827398394	1.002
12	177714	36.451827398394	1.002
12	178199	36.481827398394	1.002
12	178364	36.511827398394	1.002
12	178374	36.541827398394	1.002
12	178781	36.571827398394	1.002
12	178983	36.601827398394	1.002
12	178993	36.631827398394	1.002
12	179320	36.661827398394	1.002
12	179515	36.691827398394	1.002
12	179569	36.721827398394	1.002
12	179585	36.751827398394	1.002
12	180081	36.781827398394	1.002
12	180246	36.811827398394	1.002
12	180256	36.841827398394	1.002
12	180663	36.871827398394	1.002
12	180865	36.901827398394	1.002
12	180875	36.931827398394	1.002
12	181202	36.961827398394	1.002
12	181397	36.991827398394	1.002
12	181451	37.021827398394	1.002
12	181467	37.051827398394	1.002
12	181947	37.081827398394	1.002
12	182112	37.111827398394	1.002
12	182122	37.141827398394	1.002
12	182545	37.171827398394	1.002
12	182747	37.201827398394	1.002
12	182757	37.231827398394	1.002
12	183095	37.261827398394	1.002
12	183290	37.291827398394	1.002
12	183344	37.321827398394	1.002
12	183360	37.351827398394	1.002
12	183856	37.381827398394	1.002
12	184021	37.411827398394	1.002
12	184031	37.441827398394	1.002
12	184427	37.471827398394	1.002
12	184629	37.501827398394	1.002
12	184639	37.531827398394	1.002
12	184982	37.561827398394	1.002
12	185177	37.591827398394	1.002
12	185231	37.621827398394	1.002
12	185247	37.651827398394	1.002
12	185743	37.681827398394	1.002
12	185908	37.711827398394	1.002
12	185918	37.741827398394	1.002
12	186325	37.771827398394	1.002
12	186527	37.801827398394	1.002
12	186537	37.831827398394	1.002
12	186880	37.861827398394	1.002
12	187075	37.891827398394	1.002
12	187129	37.921827398394	1.002
12	187145	37.951827398394	1.002
12	187635	37.981827398394	1.002
12	187800	38.011827398394	1.002
12	187810	38.041827398394	1.002
12	188201	38.071827398394	1.002
12	188403	38.101827398394	1.002
12	188413	38.131827398394	1.002
12	188767	38.161827398394	1.002
12	188962	38.191827398394	1.002
12	189016	38.221827398394	1.002
12	189032	38.251827398394	1.002
12	189517	38.281827398394	1.002
12	189682	38.311827398394	1.002
12	189692	38.341827398394	1.002
12	190099	38.371827398394	1.002
12	190301	38.401827398394	1.002
12	190311	38.431827398394	1.002
12	190654	38.461827398394	1.002
12	190849	38.491827398394	1.002
12	190903	38.521827398394	1.002
12	190919	38.551827398394	1.002
12	191420	38.581827398394	1.002
12	191585	38.611827398394	1.002
12	191595	38.641827398394	1.002
12	192002	38.671827398394	1.002
12	192204	38.701827398394	1.002
12	192214	38.731827398394	1.002
12	192584	38.761827398394	1.002
12	192779	38.791827398394	1.002
12	192833	38.821827398394	1.002
12	192849	38.851827398394	1.002
12	193334	38.881827398394	1.002
12	193499	38.911827398394	1.002
12	193509	38.941827398394	1.002
12	193900	38.971827398394	1.002
12	194102	39.001827398394	1.002
12	194112	39.031827398394	1.002
12	194455	39.061827398394	1.002
12	194650	39.091827398394	1.002
12	194704	39.121827398394	1.002
12	194720	39.151827398394	1.002
12	195189	39.181827398394	1.002
12	195354	39.211827398394	1.002
12	195364	39.241827398394	1.002
12	195760	39.271827398394	1.002
12	195962	39.301827398394	1.002
12	195972	39.331827398394	1.002
12	196326	39.361827398394	1.002
12	196521	39.391827398394	1.002
12	196575	39.421827398394	1.002
12	196591	39.451827398394	1.002
12	197087	39.481827398394	1.002
12	197252	39.511827398394	1.002
12	197262	39.541827398394	1.002
12	197653	39.571827398394	1.002
12	197855	39.601827398394	1.002
12	197865	39.631827398394	1.002
12	198219	39.661827398394	1.002
12	198414	39.691827398394	1.002
12	198468	39.721827398394	1.002
12	198484	39.751827398394	1.002
12	198969	39.781827398394	1.002
12	199134	39.811827398394	1.002
12	199144	39.841827398394	1.002
12	199524	39.871827398394	1.002
12	199726	39.901827398394	1.002
12	199736	39.931827398394	1.002
12	200090	39.961827398394	1.002
12	200285	39.991827398394	1.002
12	200339	40.021827398394	1.002
12	200355	40.051827398394	1.002
12	200867	40.081827398394	1.002
12	201032	40.111827398394	1.002
12	201042	40.141827398394	1.002
12	201433	40.171827398394	1.002
12	201635	40.201827398394	1.002
12	201645	40.231827398394	1.002
12	201988	40.261827398394	1.002
12	202183	40.291827398394	1.002
12	202237	40.321827398394	1.002
12	202253	40.351827398394	1.002
12	202738	40.381827398394	1.002
12	202903	40.411827398394	1.002
12	202913	40.441827398394	1.002
12	203304	40.471827398394	1.002
12	203506	40.501827398394	1.002
12	203516	40.531827398394	1.002
12	203854	40.561827398394	1.002
12	204049	40.591827398394	1.002
12	204103	40.621827398394	1.002
12	204119	40.651827398394	1.002
12	204599	40.681827398394	1.002
12	204764	40.711827398394	1.002
12	204774	40.741827398394	1.002
12	205181	40.771827398394	1.002
12	205383	40.801827398394	1.002
12	205393	40.831827398394	1.002
12	205736	40.861827398394	1.002
12	205931	40.891827398394	1.002
12	205985	40.921827398394	1.002
12	206001	40.951827398394	1.002
12	206481	40.981827398394	1.002
12	206646	41.011827398394	1.002
12	206656	41.041827398394	1.002
12	207063	41.071827398394	1.002
12	207265	41.101827398394	1.002
12	207275	41.131827398394	1.002
12	207634	41.161827398394	1.002
12	207829	41.191827398394	1.002
12	207883	41.221827398394	1.002
12	207899	41.251827398394	1.002
12	208389	41.281827398394	1.002
12	208554	41.311827398394	1.002
12	208564	41.341827398394	1.002
12	208944	41.371827398394	1.002
12	209146	41.401827398394	1.002
12	209156	41.431827398394	1.002
12	209510	41.461827398394	1.002
12	209705	41.491827398394	1.002
12	209759	41.521827398394	1.002
12	209775	41.551827398394	1.002
12	210271	41.581827398394	1.002
12	210436	41.611827398394	1.002
12	210446	41.641827398394	1.002
12	210853	41.671827398394	1.002
12	211055	41.701827398394	1.002
12	211065	41.731827398394	1.002
12	211403	41.761827398394	1.002
12	211598	41.791827398394	1.002
12	211652	41.821827398394	1.002
12	211668	41.851827398394	1.002
12	212126	41.881827398394	1.002
12	212291	41.911827398394	1.002
12	212301	41.941827398394	1.002
12	212681	41.971827398394	1.002
12	212883	42.001827398394	1.002
12	212893	42.031827398394	1.002
12	213247	42.061827398394	1.002
12	213442	42.091827398394	1.002
12	213496	42.121827398394	1.002
12	213512	42.151827398394	1.002
12	213986	42.181827398394	1.002
12	214151	42.211827398394	1.002
12	214161	42.241827398394	1.002
12	214552	42.271827398394	1.002
12	214754	42.301827398394	1.002
12	214764	42.331827398394	1.002
12	215118	42.361827398394	1.002
12	215313	42.391827398394	1.002
12	215367	42.421827398394	1.002
12	215383	42.451827398394	1.002
12	215841	42.481827398394	1.002
12	216006	42.511827398394	1.002
12	216016	42.541827398394	1.002
12	216407	42.571827398394	1.002
12	216609	42.601827398394	1.002
12	216619	42.631827398394	1.002
12	216962	42.661827398394	1.002
12	217157	42.691827398394	1.002
12	217211	42.721827398394	1.002
12	217227	42.751827398394	1.002
12	217712	42.781827398394	1.002
12	217877	42.811827398394	1.002
12	217887	42.841827398394	1.002
12	218278	42.871827398394	1.002
12	218480	42.901827398394	1.002
12	218490	42.931827398394	1.002
12	218849	42.961827398394	1.002
12	219044	42.991827398394	1.002
12	219098	43.021827398394	1.002
12	219114	43.051827398394	1.002
12	219594	43.081827398394	1.002
12	219759	43.111827398394	1.002
12	219769	43.141827398394	1.002
12	220160	43.171827398394	1.002
12	220362	43.201827398394	1.002
12	220372	43.231827398394	1.002
12	220704	43.261827398394	1.002
12	220899	43.291827398394	1.002
12	220953	43.321827398394	1.002
12	220969	43.351827398394	1.002
12	221449	43.381827398394	1.002
12	221614	43.411827398394	1.002
12	221624	43.441827398394	1.002
12	221999	43.471827398394	1.002
12	222201	43.501827398394	1.002
12	222211	43.531827398394	1.002
12	222554	43.561827398394	1.002
12	222749	43.591827398394	1.002
12	222803	43.621827398394	1.002
12	222819	43.651827398394	1.002
12	223293	43.681827398394	1.002
12	223458	43.711827398394	1.002
12	223468	43.741827398394	1.002
12	223875	43.771827398394	1.002
12	224077	43.801827398394	1.002
12	224087	43.831827398394	1.002
12	224430	43.861827398394	1.002
12	224625	43.891827398394	1.002
12	224679	43.921827398394	1.002
12	224695	43.951827398394	1.002
12	225175	43.981827398394	1.002
12	225340	44.011827398394	1.002
12	225350	44.041827398394	1.002
12	225730	44.071827398394	1.002
12	225932	44.101827398394	1.002
12	225942	44.131827398394	1.002
12	226285	44.161827398394	1.002
12	226480	44.191827398394	1.002
12	226534	44.221827398394	1.002
12	226550	44.251827398394	1.002
12	227035	44.281827398394	1.002
12	227200	44.311827398394	1.002
12	227210	44.341827398394	1.002
12	227617	44.371827398394	1.002
12	227819	44.401827398394	1.002
12	227829	44.431827398394	1.002
12	228172	44.461827398394	1.002
12	228367	44.491827398394	1.002
12	228421	44.521827398394	1.002
12	228437	44.551827398394	1.002
12	228917	44.581827398394	1.002
12	229082	44.611827398394	1.002
12	229092	44.641827398394	1.002
12	229483	44.671827398394	1.002
12	229685	44.701827398394	1.002
12	229695	44.731827398394	1.002
12	230038	44.761827398394	1.002
12	230233	44.791827398394	1.002
12	230287	44.821827398394	1.002
12	230303	44.851827398394	1.002
12	230804	44.881827398394	1.002
12	230969	44.911827398394	1.002
12	230979	44.941827398394	1.002
12	231370	44.971827398394	1.002
12	231572	45.001827398394	1.002
12	231582	45.031827398394	1.002
12	231936	45.061827398394	1.002
12	232131	45.091827398394	1.002
12	232185	45.121827398394	1.002
12	232201	45.151827398394	1.002
12	232697	45.181827398394	1.002
12	232862	45.211827398394	1.002
12	232872	45.241827398394	1.002
12	233263	45.271827398394	1.002
12	233465	45.301827398394	1.002
12	233475	45.331827398394	1.002
12	233829	45.361827398394	1.002
12	234024	45.391827398394	1.002
12	234078	45.421827398394	1.002
12	234094	45.451827398394	1.002
12	234590	45.481827398394	1.002
12	234755	45.511827398394	1.002
12	234765	45.541827398394	1.002
12	235172	45.571827398394	1.002
12	235374	45.601827398394	1.002
12	235384	45.631827398394	1.002
12	235743	45.661827398394	1.002
12	235938	45.691827398394	1.002
12	235992	45.721827398394	1.002
12	236008	45.751827398394	1.002
12	236477	45.781827398394	1.002
12	236642	45.811827398394	1.002
12	236652	45.841827398394	1.002
12	237032	45.871827398394	1.002
12	237234	45.901827398394	1.002
12	237244	45.931827398394	1.002
12	237603	45.961827398394	1.002
12	237798	45.991827398394	1.002
12	237852	46.021827398394	1.002
12	237868	46.051827398394	1.002
12	238353	46.081827398394	1.002
12	238518	46.111827398394	1.002
12	238528	46.141827398394	1.002
12	238935	46.171827398394	1.002
12	239137	46.201827398394	1.002
12	239147	46.231827398394	1.002
12	239485	46.261827398394	1.002
12	239680	46.291827398394	1.002
12	239734	46.321827398394	1.002
12	239750	46.351827398394	1.002
12	240235	46.381827398394	1.002
12	240400	46.411827398394	1.002
12	240410	46.441827398394	1.002
12	240817	46.471827398394	1.002
12	241019	46.501827398394	1.002
12	241029	46.531827398394	1.002
12	241350	46.561827398394	1.002
12	241545	46.591827398394	1.002
12	241599	46.621827398394	1.002
12	241615	46.651827398394	1.002
12	242111	46.681827398394	1.002
12	242276	46.711827398394	1.002
12	242286	46.741827398394	1.002
12	242709	46.771827398394	1.002
12	242911	46.801827398394	1.002
12	242921	46.831827398394	1.002
12	243280	46.861827398394	1.002
12	243475	46.891827398394	1.002
12	243529	46.921827398394	1.002
12	243545	46.951827398394	1.002
12	244025	46.981827398394	1.002
12	244190	47.011827398394	1.002
12	244200	47.041827398394	1.002
12	244591	47.071827398394	1.002
12	244793	47.101827398394	1.002
12	244803	47.131827398394	1.002
12	245157	47.161827398394	1.002
12	245352	47.191827398394	1.002
12	245406	47.221827398394	1.002
12	245422	47.251827398394	1.002
12	245918	47.281827398394	1.002
12	246083	47.311827398394	1.002
12	246093	47.341827398394	1.002
12	246500	47.371827398394	1.002
12	246702	47.401827398394	1.002
12	246712	47.431827398394	1.002
12	247044	47.461827398394	1.002
12	247239	47.491827398394	1.002
12	247293	47.521827398394	1.002
12	247309	47.551827398394	1.002
12	247799	47.581827398394	1.002
12	247964	47.611827398394	1.002
12	247974	47.641827398394	1.002
12	248381	47.671827398394	1.002
12	248583	47.701827398394	1.002
12	248593	47.731827398394	1.002
12	248936	47.761827398394	1.002
12	249131	47.791827398394	1.002
12	249185	47.821827398394	1.002
12	249201	47.851827398394	1.002
12	249686	47.881827398394	1.002
12	249851	47.911827398394	1.002
12	249861	47.941827398394	1.002
12	250252	47.971827398394	1.002
12	250454	48.001827398394	1.002
12	250464	48.031827398394	1.002
12	250802	48.061827398394	1.002
12	250997	48.091827398394	1.002
12	251051	48.121827398394	1.002
12	251067	48.151827398394	1.002
12	251536	48.181827398394	1.002
12	251701	48.211827398394	1.002
12	251711	48.241827398394	1.002
12	252118	48.271827398394	1.002
12	252320	48.301827398394	1.002
12	252330	48.331827398394	1.002
12	252684	48.361827398394	1.002
12	252879	48.391827398394	1.002
12	252933	48.421827398394	1.002
12	252949	48.451827398394	1.002
12	253418	48.481827398394	1.002
12	253583	48.511827398394	1.002
12	253593	48.541827398394	1.002
12	254000	48.571827398394	1.002
12	254202	48.601827398394	1.002
12	254212	48.631827398394	1.002
12	254555	48.661827398394	1.002
12	254750	48.691827398394	1.002
12	254804	48.721827398394	1.002
12	254820	48.751827398394	1.002
12	255305	48.781827398394	1.002
12	255470	48.811827398394	1.002
12	255480	48.841827398394	1.002
12	255871	48.871827398394	1.002
12	256073	48.901827398394	1.002
12	256083	48.931827398394	1.002
12	256453	48.961827398394	1.002
12	256648	48.991827398394	1.002
12	256702	49.021827398394	1.002
12	256718	49.051827398394	1.002
12	257203	49.081827398394	1.002
12	257368	49.111827398394	1.002
12	257378	49.141827398394	1.002
12	257769	49.171827398394	1.002
12	257971	49.201827398394	1.002
12	257981	49.231827398394	1.002
12	258324	49.261827398394	1.002
12	258519	49.291827398394	1.002
12	258573	49.321827398394	1.002
12	258589	49.351827398394	1.002
12	259074	49.381827398394	1.002
12	259239	49.411827398394	1.002
12	259249	49.441827398394	1.002
12	259640	49.471827398394	1.002
12	259842	49.501827398394	1.002
12	259852	49.531827398394	1.002
12	260206	49.561827398394	1.002
12	260401	49.591827398394	1.002
12	260455	49.621827398394	1.002
12	260471	49.651827398394	1.002
12	260967	49.681827398394	1.002
12	261132	49.711827398394	1.002
12	261142	49.741827398394	1.002
12	261549	49.771827398394	1.002
12	261751	49.801827398394	1.002
12	261761	49.831827398394	1.002
12	262104	49.861827398394	1.002
12	262299	49.891827398394	1.002
12	262353	49.921827398394	1.002
12	262369	49.951827398394	1.002
12	262870	49.981827398394	1.002
12	263035	50.011827398394	1.002
12	263045	50.041827398394	1.002
12	263436	50.071827398394	1.002
12	263638	50.101827398394	1.002
12	263648	50.131827398394	1.002
12	264007	50.161827398394	1.002
12	264202	50.191827398394	1.002
12	264256	50.221827398394	1.002
12	264272	50.251827398394	1.002
12	264768	50.281827398394	1.002
12	264933	50.311827398394	1.002
12	264943	50.341827398394	1.002
12	265323	50.371827398394	1.002
12	265525	50.401827398394	1.002
12	265535	50.431827398394	1.002
12	265889	50.461827398394	1.002
12	266084	50.491827398394	1.002
12	266138	50.521827398394	1.002
12	266154	50.551827398394	1.002
12	266639	50.581827398394	1.002
12	266804	50.611827398394	1.002
12	266814	50.641827398394	1.002
12	267205	50.671827398394	1.002
12	267407	50.701827398394	1.002
12	267417	50.731827398394	1.002
12	267776	50.761827398394	1.002
12	267971	50.791827398394	1.002
12	268025	50.821827398394	1.002
12	268041	50.851827398394	1.002
12	268521	50.881827398394	1.002
12	268686	50.911827398394	1.002
12	268696	50.941827398394	1.002
12	269076	50.971827398394	1.002
12	269278	51.001827398394	1.002
12	269288	51.031827398394	1.002
12	269626	51.061827398394	1.002
12	269821	51.091827398394	1.002
12	269875	51.121827398394	1.002
12	269891	51.151827398394	1.002
12	270403	51.181827398394	1.002
12	270568	51.211827398394	1.002
12	270578	51.241827398394	1.002
12	270958	51.271827398394	1.002
12	271160	51.301827398394	1.002
12	271170	51.331827398394	1.002
12	271513	51.361827398394	1.002
12	271708	51.391827398394	1.002
12	271762	51.421827398394	1.002
12	271778	51.451827398394	1.002
12	272263	51.481827398394	1.002
12	272428	51.511827398394	1.002
12	272438	51.541827398394	1.002
12	272845	51.571827398394	1.002
12	273047	51.601827398394	1.002
12	273057	51.631827398394	1.002
12	273411	51.661827398394	1.002
12	273606	51.691827398394	1.002
12	273660	51.721827398394	1.002
12	273676	51.751827398394	1.002
12	274177	51.781827398394	1.002
12	274342	51.811827398394	1.002
12	274352	51.841827398394	1.002
12	274759	51.871827398394	1.002
12	274961	51.901827398394	1.002
12	274971	51.931827398394	1.002
12	275325	51.961827398394	1.002
12	275520	51.991827398394	1.002
12	275574	52.021827398394	1.002
12	275590	52.051827398394	1.002
12	276086	52.081827398394	1.002
12	276251	52.111827398394	1.002
12	276261	52.141827398394	1.002
12	276652	52.171827398394	1.002
12	276854	52.201827398394	1.002
12	276864	52.231827398394	1.002
12	277212	52.261827398394	1.002
12	277407	52.291827398394	1.002
12	277461	52.321827398394	1.002
12	277477	52.351827398394	1.002
12	277967	52.381827398394	1.002
12	278132	52.411827398394	1.002
12	278142	52.441827398394	1.002
12	278533	52.471827398394	1.002
12	278735	52.501827398394	1.002
12	278745	52.531827398394	1.002
12	279088	52.561827398394	1.002
12	279283	52.591827398394	1.002
12	279337	52.621827398394	1.002
12	279353	52.651827398394	1.002
12	279827	52.681827398394	1.002
12	279992	52.711827398394	1.002
12	280002	52.741827398394	1.002
12	280409	52.771827398394	1.002
12	280611	52.801827398394	1.002
12	280621	52.831827398394	1.002
12	280964	52.861827398394	1.002
12	281159	52.891827398394	1.002
12	281213	52.921827398394	1.002
12	281229	52.951827398394	1.002
12	281698	52.981827398394	1.002
12	281863	53.011827398394	1.002
12	281873	53.041827398394	1.002
12	282280	53.071827398394	1.002
12	282482	53.101827398394	1.002
12	282492	53.131827398394	1.002
12	282830	53.161827398394	1.002
12	283025	53.191827398394	1.002
12	283079	53.221827398394	1.002
12	283095	53.251827398394	1.002
12	283607	53.281827398394	1.002
12	283772	53.311827398394	1.002
12	283782	53.341827398394	1.002
12	284178	53.371827398394	1.002
12	284380	53.401827398394	1.002
12	284390	53.431827398394	1.002
12	284733	53.461827398394	1.002
12	284928	53.491827398394	1.002
12	284982	53.521827398394	1.002
12	284998	53.551827398394	1.002
12	285483	53.581827398394	1.002
12	285648	53.611827398394	1.002
12	285658	53.641827398394	1.002
12	286065	53.671827398394	1.002
12	286267	53.701827398394	1.002
12	286277	53.731827398394	1.002
12	286615	53.761827398394	1.002
12	286810	53.791827398394	1.002
12	286864	53.821827398394	1.002
12	286880	53.851827398394	1.002
12	287381	53.881827398394	1.002
12	287546	53.911827398394	1.002
12	287556	53.941827398394	1.002
12	287947	53.971827398394	1.002
12	288149	54.001827398394	1.002
12	288159	54.031827398394	1.002
12	288513	54.061827398394	1.002
12	288708	54.091827398394	1.002
12	288762	54.121827398394	1.002
12	288778	54.151827398394	1.002
12	289252	54.181827398394	1.002
12	289417	54.211827398394	1.002
12	289427	54.241827398394	1.002
12	289834	54.271827398394	1.002
12	290036	54.301827398394	1.002
12	290046	54.331827398394	1.002
12	290400	54.361827398394	1.002
12	290595	54.391827398394	1.002
12	290649	54.421827398394	1.002
12	290665	54.451827398394	1.002
12	291161	54.481827398394	1.002
12	291326	54.511827398394	1.002
12	291336	54.541827398394	1.002
12	291727	54.571827398394	1.002
12	291929	54.601827398394	1.002
12	291939	54.631827398394	1.002
12	292309	54.661827398394	1.002
12	292504	54.691827398394	1.002
12	292558	54.721827398394	1.002
12	292574	54.751827398394	1.002
12	293048	54.781827398394	1.002
12	293213	54.811827398394	1.002
12	293223	54.841827398394	1.002
12	293619	54.871827398394	1.002
12	293821	54.901827398394	1.002
12	293831	54.931827398394	1.002
12	294158	54.961827398394	1.002
12	294353	54.991827398394	1.002
12	294407	55.021827398394	1.002
12	294423	55.051827398394	1.002
12	294908	55.081827398394	1.002
12	295073	55.111827398394	1.002
12	295083	55.141827398394	1.002
12	295490	55.171827398394	1.002
12	295692	55.201827398394	1.002
12	295702	55.231827398394	1.002
12	296056	55.261827398394	1.002
12	296251	55.291827398394	1.002
12	296305	55.321827398394	1.002
12	296321	55.351827398394	1.002
12	296784	55.381827398394	1.002
12	296949	55.411827398394	1.002
12	296959	55.441827398394	1.002
12	297339	55.471827398394	1.002
12	297541	55.501827398394	1.002
12	297551	55.531827398394	1.002
12	297910	55.561827398394	1.002
12	298105	55.591827398394	1.002
12	298159	55.621827398394	1.002
12	298175	55.651827398394	1.002
12	298660	55.681827398394	1.002
12	298825	55.711827398394	1.002
12	298835	55.741827398394	1.002
12	299226	55.771827398394	1.002
12	299428	55.801827398394	1.002
12	299438	55.831827398394	1.002
12	299797	55.861827398394	1.002
12	299992	55.891827398394	1.002
12	300046	55.921827398394	1.002
12	300062	55.951827398394	1.002
12	300558	55.981827398394	1.002
12	300723	56.011827398394	1.002
12	300733	56.041827398394	1.002
12	301124	56.071827398394	1.002
12	301326	56.101827398394	1.002
12	301336	56.131827398394	1.002
12	301706	56.161827398394	1.002
12	301901	56.191827398394	1.002
12	301955	56.221827398394	1.002
12	301971	56.251827398394	1.002
12	302467	56.281827398394	1.002
12	302632	56.311827398394	1.002
12	302642	56.341827398394	1.002
12	303049	56.371827398394	1.002
12	303251	56.401827398394	1.002
12	303261	56.431827398394	1.002
12	303631	56.461827398394	1.002
12	303826	56.491827398394	1.002
12	303880	56.521827398394	1.002
12	303896	56.551827398394	1.002
12	304408	56.581827398394	1.002
12	304573	56.611827398394	1.002
12	304583	56.641827398394	1.002
12	304990	56.671827398394	1.002
12	305192	56.701827398394	1.002
12	305202	56.731827398394	1.002
12	305561	56.761827398394	1.002
12	305756	56.791827398394	1.002
12	305810	56.821827398394	1.002
12	305826	56.851827398394	1.002
12	306306	56.881827398394	1.002
12	306471	56.911827398394	1.002
12	306481	56.941827398394	1.002
12	306861	56.971827398394	1.002
12	307063	57.001827398394	1.002
12	307073	57.031827398394	1.002
12	307400	57.061827398394	1.002
12	307595	57.091827398394	1.002
12	307649	57.121827398394	1.002
12	307665	57.151827398394	1.002
12	308145	57.181827398394	1.002
12	308310	57.211827398394	1.002
12	308320	57.241827398394	1.002
12	308700	57.271827398394	1.002
12	308902	57.301827398394	1.002
12	308912	57.331827398394	1.002
12	309266	57.361827398394	1.002
12	309461	57.391827398394	1.002
12	309515	57.421827398394	1.002
12	309531	57.451827398394	1.002
12	310016	57.481827398394	1.002
12	310181	57.511827398394	1.002
12	310191	57.541827398394	1.002
12	310560	57.571827398394	1.002
12	310762	57.601827398394	1.002
12	310772	57.631827398394	1.002
12	311115	57.661827398394	1.002
12	311310	57.691827398394	1.002
12	311364	57.721827398394	1.002
12	311380	57.751827398394	1.002
12	311870	57.781827398394	1.002
12	312035	57.811827398394	1.002
12	312045	57.841827398394	1.002
12	312468	57.871827398394	1.002
12	312670	57.901827398394	1.002
12	312680	57.931827398394	1.002
12	313039	57.961827398394	1.002
12	313234	57.991827398394	1.002
12	313288	58.021827398394	1.002
12	313304	58.051827398394	1.002
12	313789	58.081827398394	1.002
12	313954	58.111827398394	1.002
12	313964	58.141827398394	1.002
12	314360	58.171827398394	1.002
12	314562	58.201827398394	1.002
12	314572	58.231827398394	1.002
12	314915	58.261827398394	1.002
12	315110	58.291827398394	1.002
12	315164	58.321827398394	1.002
12	315180	58.351827398394	1.002
12	315665	58.381827398394	1.002
12	315830	58.411827398394	1.002
12	315840	58.441827398394	1.002
12	316231	58.471827398394	1.002
12	316433	58.501827398394	1.002
12	316443	58.531827398394	1.002
12	316797	58.561827398394	1.002
12	316992	58.591827398394	1.002
12	317046	58.621827398394	1.002
12	317062	58.651827398394	1.002
12	317531	58.681827398394	1.002
12	317696	58.711827398394	1.002
12	317706	58.741827398394	1.002
12	318097	58.771827398394	1.002
12	318299	58.801827398394	1.002
12	318309	58.831827398394	1.002
12	318668	58.861827398394	1.002
12	318863	58.891827398394	1.002
12	318917	58.921827398394	1.002
12	318933	58.951827398394	1.002
12	319418	58.981827398394	1.002
12	319583	59.011827398394	1.002
12	319593	59.041827398394	1.002
12	319973	59.071827398394	1.002
12	320175	59.101827398394	1.002
12	320185	59.131827398394	1.002
12	320539	59.161827398394	1.002
12	320734	59.191827398394	1.002
12	320788	59.221827398394	1.002
12	320804	59.251827398394	1.002
12	321284	59.281827398394	1.002
12	321449	59.311827398394	1.002
12	321459	59.341827398394	1.002
12	321855	59.371827398394	1.002
12	322057	59.401827398394	1.002
12	322067	59.431827398394	1.002
12	322410	59.461827398394	1.002
12	322605	59.491827398394	1.002
12	322659	59.521827398394	1.002
12	322675	59.551827398394	1.002
12	323171	59.581827398394	1.002
12	323336	59.611827398394	1.002
12	323346	59.641827398394	1.002
12	323737	59.671827398394	1.002
12	323939	59.701827398394	1.002
12	323949	59.731827398394	1.002
12	324292	59.761827398394	1.002
12	324487	59.791827398394	1.002
12	324541	59.821827398394	1.002
12	324557	59.851827398394	1.002
12	325053	59.881827398394	1.002
12	325218	59.911827398394	1.002
12	325228	59.941827398394	1.002
12	325624	59.971827398394	1.002
12	325826	60.001827398394	1.002
12	325836	60.031827398394	1.002
12	326184	60.061827398394	1.002
12	326379	60.091827398394	1.002
12	326433	60.121827398394	1.002
12	326449	60.151827398394	1.002
12	326945	60.181827398394	1.002
12	327110	60.211827398394	1.002
12	327120	60.241827398394	1.002
12	327511	60.271827398394	1.002
12	327713	60.301827398394	1.002
12	327723	60.331827398394	1.002
12	328077	60.361827398394	1.002
12	328272	60.391827398394	1.002
12	328326	60.421827398394	1.002
12	328342	60.451827398394	1.002
12	328838	60.481827398394	1.002
12	329003	60.511827398394	1.002
12	329013	60.541827398394	1.002
12	329420	60.571827398394	1.002
12	329622	60.601827398394	1.002
12	329632	60.631827398394	1.002
12	329991	60.661827398394	1.002
12	330186	60.691827398394	1.002
12	330240	60.721827398394	1.002
12	330256	60.751827398394	1.002
12	330768	60.781827398394	1.002
12	330933	60.811827398394	1.002
12	330943	60.841827398394	1.002
12	331350	60.871827398394	1.002
12	331552	60.901827398394	1.002
12	331562	60.931827398394	1.002
12	331916	60.961827398394	1.002
12	332111	60.991827398394	1.002
12	332165	61.021827398394	1.002
12	332181	61.051827398394	1.002
12	332682	61.081827398394	1.002
12	332847	61.111827398394	1.002
12	332857	61.141827398394	1.002
12	333264	61.171827398394	1.002
12	333466	61.201827398394	1.002
12	333476	61.231827398394	1.002
12	333814	61.261827398394	1.002
12	334009	61.291827398394	1.002
12	334063	61.321827398394	1.002
12	334079	61.351827398394	1.002
12	334564	61.381827398394	1.002
12	334729	61.411827398394	1.002
12	334739	61.441827398394	1.002
12	335130	61.471827398394	1.002
12	335332	61.501827398394	1.002
12	335342	61.531827398394	1.002
12	335712	61.561827398394	1.002
12	335907	61.591827398394	1.002
12	335961	61.621827398394	1.002
12	335977	61.651827398394	1.002
12	336473	61.681827398394	1.002
11	25	0.541827398394	1
11	42	0.571827398394	2
11	60	0.601827398394	3
11	62	0.631827398394	4
11	92	0.661827398394	5
11	107	0.691827398394	6
11	125	0.721827398394	7
11	129	0.751827398394	8
11	157	0.781827398394	9
11	175	0.811827398394	10
11	177	0.841827398394	11
11	207	0.871827398394	12
11	225	0.901827398394	13
11	227	0.931827398394	14
11	257	0.961827398394	15
11	272	0.991827398394	16
11	290	1.021827398394	17
11	294	1.051827398394	18
11	322	1.081827398394	19
11	340	1.111827398394	20
11	342	1.141827398394	21
11	372	1.171827398394	22
11	390	1.201827398394	23
11	392	1.231827398394	24
11	422	1.261827398394	25
11	437	1.291827398394	26
11	455	1.321827398394	27
11	459	1.351827398394	28
11	487	1.381827398394	29
11	505	1.411827398394	30
11	507	1.441827398394	31
11	537	1.471827398394	32
11	555	1.501827398394	33
11	557	1.531827398394	34
11	587	1.561827398394	35
11	602	1.591827398394	36
11	620	1.621827398394	37
11	624	1.651827398394	38
11	652	1.681827398394	39
11	670	1.711827398394	40
11	672	1.741827398394	41
11	702	1.771827398394	42
11	720	1.801827398394	43
11	722	1.831827398394	44
11	752	1.861827398394	45
11	767	1.891827398394	46
11	785	1.921827398394	47
11	789	1.951827398394	48
11	817	1.981827398394	49
11	835	2.011827398394	50
11	837	2.041827398394	51
11	867	2.071827398394	52
11	885	2.101827398394	53
11	887	2.131827398394	54
11	917	2.161827398394	55
11	932	2.191827398394	56
11	950	2.221827398394	57
11	954	2.251827398394	58
11	982	2.281827398394	59
11	1000	2.311827398394	60
11	1002	2.341827398394	61
11	1032	2.371827398394	62
11	1050	2.401827398394	63
11	1052	2.431827398394	64
11	1082	2.461827398394	65
11	1097	2.491827398394	66
11	1115	2.521827398394	67
11	1119	2.551827398394	68
11	1147	2.581827398394	69
11	1165	2.611827398394	70
11	1167	2.641827398394	71
11	1197	2.671827398394	72
11	1215	2.701827398394	73
11	1217	2.731827398394	74
11	1247	2.761827398394	75
11	1262	2.791827398394	76
11	1280	2.821827398394	77
11	1284	2.851827398394	78
11	1312	2.881827398394	79
11	1330	2.911827398394	80
11	1332	2.941827398394	81
11	1362	2.971827398394	82
11	1380	3.001827398394	83
11	1382	3.031827398394	84
11	1412	3.061827398394	85
11	1427	3.091827398394	86
11	1445	3.121827398394	87
11	1450	3.151827398394	88
11	1490	3.181827398394	89
11	1515	3.211827398394	90
11	1517	3.241827398394	91
11	1581	3.271827398394	93
11	1627	3.301827398394	95
11	1631	3.331827398394	97
11	1707	3.361827398394	99
11	1749	3.391827398394	101
11	1776	3.421827398394	103
11	1783	3.451827398394	105
11	1882	3.481827398394	107
11	1928	3.511827398394	109
11	1932	3.541827398394	111
11	2015	3.571827398394	113
11	2061	3.601827398394	115
11	2065	3.631827398394	117
11	2141	3.661827398394	119
11	2183	3.691827398394	121
11	2210	3.721827398394	123
11	2217	3.751827398394	125
11	2316	3.781827398394	127
11	2362	3.811827398394	129
11	2366	3.841827398394	131
11	2449	3.871827398394	133
11	2495	3.901827398394	135
11	2499	3.931827398394	137
11	2582	3.961827398394	139
11	2624	3.991827398394	141
11	2651	4.021827398394	143
11	2658	4.051827398394	145
11	2757	4.081827398394	147
11	2803	4.111827398394	149
11	2807	4.141827398394	151
11	2890	4.171827398394	153
11	2936	4.201827398394	155
11	2940	4.231827398394	157
11	3023	4.261827398394	159
11	3065	4.291827398394	161
11	3092	4.321827398394	163
11	3099	4.351827398394	165
11	3191	4.381827398394	167
11	3237	4.411827398394	169
11	3241	4.441827398394	171
11	3324	4.471827398394	173
11	3370	4.501827398394	175
11	3374	4.531827398394	177
11	3457	4.561827398394	179
11	3499	4.591827398394	181
11	3526	4.621827398394	183
11	3533	4.651827398394	185
11	3632	4.681827398394	187
11	3678	4.711827398394	189
11	3682	4.741827398394	191
11	3765	4.771827398394	193
11	3811	4.801827398394	195
11	3815	4.831827398394	197
11	3891	4.861827398394	199
11	3933	4.891827398394	201
11	3960	4.921827398394	203
11	3967	4.951827398394	205
11	4059	4.981827398394	207
11	4105	5.011827398394	209
11	4109	5.041827398394	211
11	4192	5.071827398394	213
11	4238	5.101827398394	215
11	4242	5.131827398394	217
11	4325	5.161827398394	219
11	4367	5.191827398394	221
11	4394	5.221827398394	223
11	4401	5.251827398394	225
11	4500	5.281827398394	227
11	4546	5.311827398394	229
11	4550	5.341827398394	231
11	4633	5.371827398394	233
11	4679	5.401827398394	235
11	4683	5.431827398394	237
11	4759	5.461827398394	239
11	4801	5.491827398394	241
11	4828	5.521827398394	243
11	4835	5.551827398394	245
11	4934	5.581827398394	247
11	4980	5.611827398394	249
11	4984	5.641827398394	251
11	5067	5.671827398394	253
11	5113	5.701827398394	255
11	5117	5.731827398394	257
11	5193	5.761827398394	259
11	5235	5.791827398394	261
11	5262	5.821827398394	263
11	5269	5.851827398394	265
11	5368	5.881827398394	267
11	5414	5.911827398394	269
11	5418	5.941827398394	271
11	5501	5.971827398394	273
11	5547	6.001827398394	275
11	5551	6.031827398394	277
11	5627	6.061827398394	279
11	5669	6.091827398394	281
11	5696	6.121827398394	283
11	5704	6.151827398394	285
11	5833	6.181827398394	287
11	5892	6.211827398394	289
11	5896	6.241827398394	291
11	6004	6.271827398394	293
11	6063	6.301827398394	295
11	6067	6.331827398394	297
11	6175	6.361827398394	299
11	6229	6.391827398394	301
11	6263	6.421827398394	303
11	6271	6.451827398394	305
11	6400	6.481827398394	307
11	6459	6.511827398394	309
11	6463	6.541827398394	311
11	6571	6.571827398394	313
11	6630	6.601827398394	315
11	6634	6.631827398394	317
11	6732	6.661827398394	319
11	6786	6.691827398394	321
11	6820	6.721827398394	323
11	6828	6.751827398394	325
11	6947	6.781827398394	327
11	7006	6.811827398394	329
11	7010	6.841827398394	331
11	7118	6.871827398394	333
11	7177	6.901827398394	335
11	7181	6.931827398394	337
11	7289	6.961827398394	339
11	7370	6.991827398394	342
11	7406	7.021827398394	345
11	7416	7.051827398394	348
11	7612	7.081827398394	351
11	7698	7.111827398394	354
11	7704	7.141827398394	357
11	7854	7.171827398394	360
11	7940	7.201827398394	363
11	7946	7.231827398394	366
11	8096	7.261827398394	369
11	8177	7.291827398394	372
11	8213	7.321827398394	375
11	8223	7.351827398394	378
11	8429	7.381827398394	381
11	8515	7.411827398394	384
11	8521	7.441827398394	387
11	8671	7.471827398394	390
11	8757	7.501827398394	393
11	8763	7.531827398394	396
11	8913	7.561827398394	399
11	8994	7.591827398394	402
11	9030	7.621827398394	405
11	9040	7.651827398394	408
11	9226	7.681827398394	411
11	9312	7.711827398394	414
11	9318	7.741827398394	417
11	9468	7.771827398394	420
11	9554	7.801827398394	423
11	9560	7.831827398394	426
11	9710	7.861827398394	429
11	9791	7.891827398394	432
11	9827	7.921827398394	435
11	9837	7.951827398394	438
11	10023	7.981827398394	441
11	10109	8.011827398394	444
11	10115	8.041827398394	447
11	10275	8.071827398394	450
11	10361	8.101827398394	453
11	10367	8.131827398394	456
11	10527	8.161827398394	459
11	10608	8.191827398394	462
11	10644	8.221827398394	465
11	10654	8.251827398394	468
11	10850	8.281827398394	471
11	10936	8.311827398394	474
11	10942	8.341827398394	477
11	11102	8.371827398394	480
11	11188	8.401827398394	483
11	11194	8.431827398394	486
11	11334	8.461827398394	489
11	11415	8.491827398394	492
11	11451	8.521827398394	495
11	11461	8.551827398394	498
11	11657	8.581827398394	501
11	11743	8.611827398394	504
11	11749	8.641827398394	507
11	11909	8.671827398394	510
11	11995	8.701827398394	513
11	12001	8.731827398394	516
11	12151	8.761827398394	519
11	12232	8.791827398394	522
11	12268	8.821827398394	525
11	12278	8.851827398394	528
11	12467	8.881827398394	531
11	12553	8.911827398394	534
11	12559	8.941827398394	537
11	12719	8.971827398394	540
11	12805	9.001827398394	543
11	12811	9.031827398394	546
11	12971	9.061827398394	549
11	13052	9.091827398394	552
11	13088	9.121827398394	555
11	13099	9.151827398394	558
11	13340	9.181827398394	561
11	13445	9.211827398394	564
11	13451	9.241827398394	567
11	13636	9.271827398394	570
11	13741	9.301827398394	573
11	13747	9.331827398394	576
11	13919	9.361827398394	579
11	14018	9.391827398394	582
11	14061	9.421827398394	585
11	14072	9.451827398394	588
11	14313	9.481827398394	591
11	14418	9.511827398394	594
11	14424	9.541827398394	597
11	14642	9.571827398394	601
11	14780	9.601827398394	605
11	14788	9.631827398394	609
11	15014	9.661827398394	613
11	15146	9.691827398394	617
11	15191	9.721827398394	621
11	15204	9.751827398394	625
11	15541	9.781827398394	629
11	15679	9.811827398394	633
11	15687	9.841827398394	637
11	15948	9.871827398394	641
11	16086	9.901827398394	645
11	16094	9.931827398394	649
11	16329	9.961827398394	653
11	16461	9.991827398394	657
11	16506	10.021827398394	661
11	16519	10.051827398394	665
11	16868	10.081827398394	669
11	17006	10.111827398394	673
11	17014	10.141827398394	677
11	17263	10.171827398394	681
11	17401	10.201827398394	685
11	17409	10.231827398394	689
11	17657	10.261827398394	693
11	17789	10.291827398394	697
11	17834	10.321827398394	701
11	17847	10.351827398394	705
11	18174	10.381827398394	709
11	18312	10.411827398394	713
11	18320	10.441827398394	717
11	18568	10.471827398394	721
11	18706	10.501827398394	725
11	18714	10.531827398394	729
11	18949	10.561827398394	733
11	19081	10.591827398394	737
11	19126	10.621827398394	741
11	19139	10.651827398394	745
11	19466	10.681827398394	749
11	19604	10.711827398394	753
11	19612	10.741827398394	757
11	19873	10.771827398394	761
11	20011	10.801827398394	765
11	20019	10.831827398394	769
11	20267	10.861827398394	773
11	20399	10.891827398394	777
11	20444	10.921827398394	781
11	20457	10.951827398394	785
11	20780	10.981827398394	789
11	20918	11.011827398394	793
11	20926	11.041827398394	797
11	21187	11.071827398394	801
11	21325	11.101827398394	805
11	21333	11.131827398394	809
11	21581	11.161827398394	813
11	21713	11.191827398394	817
11	21758	11.221827398394	821
11	21771	11.251827398394	825
11	22120	11.281827398394	829
11	22258	11.311827398394	833
11	22266	11.341827398394	837
11	22514	11.371827398394	841
11	22652	11.401827398394	845
11	22660	11.431827398394	849
11	22895	11.461827398394	853
11	23027	11.491827398394	857
11	23072	11.521827398394	861
11	23085	11.551827398394	865
11	23408	11.581827398394	869
11	23546	11.611827398394	873
11	23554	11.641827398394	877
11	23802	11.671827398394	881
11	23940	11.701827398394	885
11	23948	11.731827398394	889
11	24170	11.761827398394	893
11	24302	11.791827398394	897
11	24347	11.821827398394	901
11	24360	11.851827398394	905
11	24709	11.881827398394	909
11	24847	11.911827398394	913
11	24855	11.941827398394	917
11	25116	11.971827398394	921
11	25254	12.001827398394	925
11	25262	12.031827398394	929
11	25497	12.061827398394	933
11	25629	12.091827398394	937
11	25674	12.121827398394	941
[...]
9	209773	41.550253279723	1
9	210432	41.600253279723	1.001
9	210452	41.650253279723	1
9	211053	41.700253279723	1.001
9	211077	41.750253279723	1
9	211642	41.800253279723	1.001
9	211666	41.850253279723	1
9	212287	41.900253279723	1.001
9	212307	41.950253279723	1
9	212881	42.000253279723	1.001
9	212905	42.050253279723	1
9	213486	42.100253279723	1.001
9	213510	42.150253279723	1
9	214147	42.200253279723	1.001
9	214167	42.250253279723	1
9	214752	42.300253279723	1.001
9	214776	42.350253279723	1
9	215357	42.400253279723	1.001
9	215381	42.450253279723	1
9	216002	42.500253279723	1.001
9	216022	42.550253279723	1
9	216607	42.600253279723	1.001
9	216631	42.650253279723	1
9	217201	42.700253279723	1.001
9	217225	42.750253279723	1
9	217873	42.800253279723	1.001
9	217893	42.850253279723	1
9	218478	42.900253279723	1.001
9	218502	42.950253279723	1
9	219088	43.000253279723	1.001
9	219112	43.050253279723	1
9	219755	43.100253279723	1.001
9	219775	43.150253279723	1
9	220360	43.200253279723	1.001
9	220384	43.250253279723	1
9	220943	43.300253279723	1.001
9	220967	43.350253279723	1
9	221610	43.400253279723	1.001
9	221630	43.450253279723	1
9	222199	43.500253279723	1.001
9	222223	43.550253279723	1
9	222793	43.600253279723	1.001
9	222817	43.650253279723	1
9	223454	43.700253279723	1.001
9	223474	43.750253279723	1
9	224075	43.800253279723	1.001
9	224099	43.850253279723	1
9	224669	43.900253279723	1.001
9	224693	43.950253279723	1
9	225336	44.000253279723	1.001
9	225356	44.050253279723	1
9	225930	44.100253279723	1.001
9	225954	44.150253279723	1
9	226524	44.200253279723	1.001
9	226548	44.250253279723	1
9	227196	44.300253279723	1.001
9	227216	44.350253279723	1
9	227817	44.400253279723	1.001
9	227841	44.450253279723	1
9	228411	44.500253279723	1.001
9	228435	44.550253279723	1
9	229078	44.600253279723	1.001
9	229098	44.650253279723	1
9	229683	44.700253279723	1.001
9	229707	44.750253279723	1
9	230277	44.800253279723	1.001
9	230301	44.850253279723	1
9	230965	44.900253279723	1.001
9	230985	44.950253279723	1
9	231570	45.000253279723	1.001
9	231594	45.050253279723	1
9	232175	45.100253279723	1.001
9	232199	45.150253279723	1
9	232858	45.200253279723	1.001
9	232878	45.250253279723	1
9	233463	45.300253279723	1.001
9	233487	45.350253279723	1
9	234068	45.400253279723	1.001
9	234092	45.450253279723	1
9	234751	45.500253279723	1.001
9	234771	45.550253279723	1
9	235372	45.600253279723	1.001
9	235396	45.650253279723	1
9	235982	45.700253279723	1.001
9	236006	45.750253279723	1
9	236638	45.800253279723	1.001
9	236658	45.850253279723	1
9	237232	45.900253279723	1.001
9	237256	45.950253279723	1
9	237842	46.000253279723	1.001
9	237866	46.050253279723	1
9	238514	46.100253279723	1.001
9	238534	46.150253279723	1
9	239135	46.200253279723	1.001
9	239159	46.250253279723	1
9	239724	46.300253279723	1.001
9	239748	46.350253279723	1
9	240396	46.400253279723	1.001
9	240416	46.450253279723	1
9	241017	46.500253279723	1.001
9	241041	46.550253279723	1
9	241589	46.600253279723	1.001
9	241613	46.650253279723	1
9	242272	46.700253279723	1.001
9	242292	46.750253279723	1
9	242909	46.800253279723	1.001
9	242933	46.850253279723	1
9	243519	46.900253279723	1.001
9	243543	46.950253279723	1
9	244186	47.000253279723	1.001
9	244206	47.050253279723	1
9	244791	47.100253279723	1.001
9	244815	47.150253279723	1
9	245396	47.200253279723	1.001
9	245420	47.250253279723	1
9	246079	47.300253279723	1.001
9	246099	47.350253279723	1
9	246700	47.400253279723	1.001
9	246724	47.450253279723	1
9	247283	47.500253279723	1.001
9	247307	47.550253279723	1
9	247960	47.600253279723	1.001
9	247980	47.650253279723	1
9	248581	47.700253279723	1.001
9	248605	47.750253279723	1
9	249175	47.800253279723	1.001
9	249199	47.850253279723	1
9	249847	47.900253279723	1.001
9	249867	47.950253279723	1
9	250452	48.000253279723	1.001
9	250476	48.050253279723	1
9	251041	48.100253279723	1.001
9	251065	48.150253279723	1
9	251697	48.200253279723	1.001
9	251717	48.250253279723	1
9	252318	48.300253279723	1.001
9	252342	48.350253279723	1
9	252923	48.400253279723	1.001
9	252947	48.450253279723	1
9	253579	48.500253279723	1.001
9	253599	48.550253279723	1
9	254200	48.600253279723	1.001
9	254224	48.650253279723	1
9	254794	48.700253279723	1.001
9	254818	48.750253279723	1
9	255466	48.800253279723	1.001
9	255486	48.850253279723	1
9	256071	48.900253279723	1.001
9	256095	48.950253279723	1
9	256692	49.000253279723	1.001
9	256716	49.050253279723	1
9	257364	49.100253279723	1.001
9	257384	49.150253279723	1
9	257969	49.200253279723	1.001
9	257993	49.250253279723	1
9	258563	49.300253279723	1.001
9	258587	49.350253279723	1
9	259235	49.400253279723	1.001
9	259255	49.450253279723	1
9	259840	49.500253279723	1.001
9	259864	49.550253279723	1
9	260445	49.600253279723	1.001
9	260469	49.650253279723	1
9	261128	49.700253279723	1.001
9	261148	49.750253279723	1
9	261749	49.800253279723	1.001
9	261773	49.850253279723	1
9	262343	49.900253279723	1.001
9	262367	49.950253279723	1
9	263031	50.000253279723	1.001
9	263051	50.050253279723	1
9	263636	50.100253279723	1.001
9	263660	50.150253279723	1
9	264246	50.200253279723	1.001
9	264270	50.250253279723	1
9	264929	50.300253279723	1.001
9	264949	50.350253279723	1
9	265523	50.400253279723	1.001
9	265547	50.450253279723	1
9	266128	50.500253279723	1.001
9	266152	50.550253279723	1
9	266800	50.600253279723	1.001
9	266820	50.650253279723	1
9	267405	50.700253279723	1.001
9	267429	50.750253279723	1
9	268015	50.800253279723	1.001
9	268039	50.850253279723	1
9	268682	50.900253279723	1.001
9	268702	50.950253279723	1
9	269276	51.000253279723	1.001
9	269300	51.050253279723	1
9	269865	51.100253279723	1.001
9	269889	51.150253279723	1
9	270564	51.200253279723	1.001
9	270584	51.250253279723	1
9	271158	51.300253279723	1.001
9	271182	51.350253279723	1
9	271752	51.400253279723	1.001
9	271776	51.450253279723	1
9	272424	51.500253279723	1.001
9	272444	51.550253279723	1
9	273045	51.600253279723	1.001
9	273069	51.650253279723	1
9	273650	51.700253279723	1.001
9	273674	51.750253279723	1
9	274338	51.800253279723	1.001
9	274358	51.850253279723	1
9	274959	51.900253279723	1.001
9	274983	51.950253279723	1
9	275564	52.000253279723	1.001
9	275588	52.050253279723	1
9	276247	52.100253279723	1.001
9	276267	52.150253279723	1
9	276852	52.200253279723	1.001
9	276876	52.250253279723	1
9	277451	52.300253279723	1.001
9	277475	52.350253279723	1
9	278128	52.400253279723	1.001
9	278148	52.450253279723	1
9	278733	52.500253279723	1.001
9	278757	52.550253279723	1
9	279327	52.600253279723	1.001
9	279351	52.650253279723	1
9	279988	52.700253279723	1.001
9	280008	52.750253279723	1
9	280609	52.800253279723	1.001
9	280633	52.850253279723	1
9	281203	52.900253279723	1.001
9	281227	52.950253279723	1
9	281859	53.000253279723	1.001
9	281879	53.050253279723	1
9	282480	53.100253279723	1.001
9	282504	53.150253279723	1
9	283069	53.200253279723	1.001
9	283093	53.250253279723	1
9	283768	53.300253279723	1.001
9	283788	53.350253279723	1
9	284378	53.400253279723	1.001
9	284402	53.450253279723	1
9	284972	53.500253279723	1.001
9	284996	53.550253279723	1
9	285644	53.600253279723	1.001
9	285664	53.650253279723	1
9	286265	53.700253279723	1.001
9	286289	53.750253279723	1
9	286854	53.800253279723	1.001
9	286878	53.850253279723	1
9	287542	53.900253279723	1.001
9	287562	53.950253279723	1
9	288147	54.000253279723	1.001
9	288171	54.050253279723	1
9	288752	54.100253279723	1.001
9	288776	54.150253279723	1
9	289413	54.200253279723	1.001
9	289433	54.250253279723	1
9	290034	54.300253279723	1.001
9	290058	54.350253279723	1
9	290639	54.400253279723	1.001
9	290663	54.450253279723	1
9	291322	54.500253279723	1.001
9	291342	54.550253279723	1
9	291927	54.600253279723	1.001
9	291951	54.650253279723	1
9	292548	54.700253279723	1.001
9	292572	54.750253279723	1
9	293209	54.800253279723	1.001
9	293229	54.850253279723	1
9	293819	54.900253279723	1.001
9	293843	54.950253279723	1
9	294397	55.000253279723	1.001
9	294421	55.050253279723	1
9	295069	55.100253279723	1.001
9	295089	55.150253279723	1
9	295690	55.200253279723	1.001
9	295714	55.250253279723	1
9	296295	55.300253279723	1.001
9	296319	55.350253279723	1
9	296945	55.400253279723	1.001
9	296965	55.450253279723	1
9	297539	55.500253279723	1.001
9	297563	55.550253279723	1
9	298149	55.600253279723	1.001
9	298173	55.650253279723	1
9	298821	55.700253279723	1.001
9	298841	55.750253279723	1
9	299426	55.800253279723	1.001
9	299450	55.850253279723	1
9	300036	55.900253279723	1.001
9	300060	55.950253279723	1
9	300719	56.000253279723	1.001
9	300739	56.050253279723	1
9	301324	56.100253279723	1.001
9	301348	56.150253279723	1
9	301945	56.200253279723	1.001
9	301969	56.250253279723	1
9	302628	56.300253279723	1.001
9	302648	56.350253279723	1
9	303249	56.400253279723	1.001
9	303273	56.450253279723	1
9	303870	56.500253279723	1.001
9	303894	56.550253279723	1
9	304569	56.600253279723	1.001
9	304589	56.650253279723	1
9	305190	56.700253279723	1.001
9	305214	56.750253279723	1
9	305800	56.800253279723	1.001
9	305824	56.850253279723	1
9	306467	56.900253279723	1.001
9	306487	56.950253279723	1
9	307061	57.000253279723	1.001
9	307085	57.050253279723	1
9	307639	57.100253279723	1.001
9	307663	57.150253279723	1
9	308306	57.200253279723	1.001
9	308326	57.250253279723	1
9	308900	57.300253279723	1.001
9	308924	57.350253279723	1
9	309505	57.400253279723	1.001
9	309529	57.450253279723	1
9	310177	57.500253279723	1.001
9	310197	57.550253279723	1
9	310760	57.600253279723	1.001
9	310784	57.650253279723	1
9	311354	57.700253279723	1.001
9	311378	57.750253279723	1
9	312031	57.800253279723	1.001
9	312051	57.850253279723	1
9	312668	57.900253279723	1.001
9	312692	57.950253279723	1
9	313278	58.000253279723	1.001
9	313302	58.050253279723	1
9	313950	58.100253279723	1.001
9	313970	58.150253279723	1
9	314560	58.200253279723	1.001
9	314584	58.250253279723	1
9	315154	58.300253279723	1.001
9	315178	58.350253279723	1
9	315826	58.400253279723	1.001
9	315846	58.450253279723	1
9	316431	58.500253279723	1.001
9	316455	58.550253279723	1
9	317036	58.600253279723	1.001
9	317060	58.650253279723	1
9	317692	58.700253279723	1.001
9	317712	58.750253279723	1
9	318297	58.800253279723	1.001
9	318321	58.850253279723	1
9	318907	58.900253279723	1.001
9	318931	58.950253279723	1
9	319579	59.000253279723	1.001
9	319599	59.050253279723	1
9	320173	59.100253279723	1.001
9	320197	59.150253279723	1
9	320778	59.200253279723	1.001
9	320802	59.250253279723	1
9	321445	59.300253279723	1.001
9	321465	59.350253279723	1
9	322055	59.400253279723	1.001
9	322079	59.450253279723	1
9	322649	59.500253279723	1.001
9	322673	59.550253279723	1
9	323332	59.600253279723	1.001
9	323352	59.650253279723	1
9	323937	59.700253279723	1.001
9	323961	59.750253279723	1
9	324531	59.800253279723	1.001
9	324555	59.850253279723	1
9	325214	59.900253279723	1.001
9	325234	59.950253279723	1
9	325824	60.000253279723	1.001
9	325848	60.050253279723	1
9	326423	60.100253279723	1.001
9	326447	60.150253279723	1
9	327106	60.200253279723	1.001
9	327126	60.250253279723	1
9	327711	60.300253279723	1.001
9	327735	60.350253279723	1
9	328316	60.400253279723	1.001
9	328340	60.450253279723	1
9	328999	60.500253279723	1.001
9	329019	60.550253279723	1
9	329620	60.600253279723	1.001
9	329644	60.650253279723	1
9	330230	60.700253279723	1.001
9	330254	60.750253279723	1
9	330929	60.800253279723	1.001
9	330949	60.850253279723	1
9	331550	60.900253279723	1.001
9	331574	60.950253279723	1
9	332155	61.000253279723	1.001
9	332179	61.050253279723	1
9	332843	61.100253279723	1.001
9	332863	61.150253279723	1
9	333464	61.200253279723	1.001
9	333488	61.250253279723	1
9	334053	61.300253279723	1.001
9	334077	61.350253279723	1
9	334725	61.400253279723	1.001
9	334745	61.450253279723	1
9	335330	61.500253279723	1.001
9	335354	61.550253279723	1
9	335951	61.600253279723	1.001
9	335975	61.650253279723	1
9	336633	61.700253279723	1.001
9	336648	61.750253279723	1
9	337073	61.800253279723	1.001
9	337092	61.850253279723	1
9	337454	61.900253279723	1.001
9	337475	61.950253279723	1
9	337925	62.000253279723	1.001
9	337940	62.050253279723	1
9	338365	62.100253279723	1.001
9	338384	62.150253279723	1
9	338750	62.200253279723	1.001
9	338771	62.250253279723	1
9	339243	62.300253279723	1.001
9	339258	62.350253279723	1
9	339670	62.400253279723	1.001
9	339689	62.450253279723	1
9	340042	62.500253279723	1.001
9	340063	62.550253279723	1
9	340513	62.600253279723	1.001
9	340528	62.650253279723	1
9	340953	62.700253279723	1.001
9	340972	62.750253279723	1
9	341347	62.800253279723	1.001
9	341368	62.850253279723	1
9	341818	62.900253279723	1.001
9	341833	62.950253279723	1
9	342245	63.000253279723	1.001
9	342264	63.050253279723	1
9	342639	63.100253279723	1.001
9	342660	63.150253279723	1
9	343119	63.200253279723	1.001
9	343134	63.250253279723	1
9	343559	63.300253279723	1.001
9	343578	63.350253279723	1
9	343953	63.400253279723	1.001
9	343974	63.450253279723	1
9	344424	63.500253279723	1.001
9	344439	63.550253279723	1
9	344851	63.600253279723	1.001
9	344870	63.650253279723	1
9	345245	63.700253279723	1.001
9	345266	63.750253279723	1
9	345725	63.800253279723	1.001
9	345740	63.850253279723	1
9	346165	63.900253279723	1.001
9	346184	63.950253279723	1
9	346559	64.000253279723	1.001
9	346580	64.050253279723	1
9	347039	64.100253279723	1.001
9	347054	64.150253279723	1
9	347479	64.200253279723	1.001
9	347498	64.250253279723	1
9	347873	64.300253279723	1.001
9	347894	64.350253279723	1
9	348344	64.400253279723	1.001
9	348359	64.450253279723	1
9	348784	64.500253279723	1.001
9	348803	64.550253279723	1
9	349164	64.600253279723	1.001
9	349180	64.650253279723	1
9	349460	64.700253279723	1.001
9	349472	64.750253279723	1
9	349739	64.800253279723	1.001
9	349753	64.850253279723	1
9	349991	64.900253279723	1.001
9	350007	64.950253279723	1
9	350287	65.000253279723	1.001
9	350299	65.050253279723	1
9	350566	65.100253279723	1.001
9	350580	65.150253279723	1
9	350818	65.200253279723	1.001
9	350834	65.250253279723	1
9	351107	65.300253279723	1.001
9	351119	65.350253279723	1
9	351376	65.400253279723	1.001
9	351390	65.450253279723	1
9	351628	65.500253279723	1.001
9	351644	65.550253279723	1
9	351924	65.600253279723	1.001
9	351936	65.650253279723	1
9	352193	65.700253279723	1.001
9	352207	65.750253279723	1
9	352445	65.800253279723	1.001
9	352461	65.850253279723	1
9	352751	65.900253279723	1.001
9	352763	65.950253279723	1
9	353020	66.000253279723	1.001
9	353034	66.050253279723	1
9	353262	66.100253279723	1.001
9	353278	66.150253279723	1
9	353558	66.200253279723	1.001
9	353570	66.250253279723	1
9	353837	66.300253279723	1.001
9	353851	66.350253279723	1
9	354079	66.400253279723	1.001
9	354095	66.450253279723	1
9	354375	66.500253279723	1.001
9	354387	66.550253279723	1
9	354644	66.600253279723	1.001
9	354658	66.650253279723	1
9	354896	66.700253279723	1.001
9	354912	66.750253279723	1
9	355192	66.800253279723	1.001
9	355204	66.850253279723	1
9	355471	66.900253279723	1.001
9	355485	66.950253279723	1
9	355713	67.000253279723	1.001
9	355729	67.050253279723	1
9	356019	67.100253279723	1.001
9	356031	67.150253279723	1
9	356298	67.200253279723	1.001
9	356312	67.250253279723	1
9	356550	67.300253279723	1.001
9	356566	67.350253279723	1
9	356846	67.400253279723	1.001
9	356858	67.450253279723	1
9	357125	67.500253279723	1.001
9	357139	67.550253279723	1
9	357366	67.600253279723	1.001
9	357377	67.650253279723	1
9	357520	67.700253279723	1.001
9	357529	67.750253279723	1
9	357674	67.800253279723	1.001
9	357683	67.850253279723	1
9	357807	67.900253279723	1.001
9	357818	67.950253279723	1
9	357961	68.000253279723	1.001
9	357970	68.050253279723	1
9	358115	68.100253279723	1.001
9	358124	68.150253279723	1
9	358248	68.200253279723	1.001
9	358259	68.250253279723	1
9	358402	68.300253279723	1.001
9	358411	68.350253279723	1
9	358556	68.400253279723	1.001
9	358565	68.450253279723	1
9	358689	68.500253279723	1.001
9	358700	68.550253279723	1
9	358843	68.600253279723	1.001
9	358852	68.650253279723	1
9	358997	68.700253279723	1.001
9	359006	68.750253279723	1
9	359130	68.800253279723	1.001
9	359141	68.850253279723	1
9	359284	68.900253279723	1.001
9	359293	68.950253279723	1
9	359438	69.000253279723	1.001
9	359447	69.050253279723	1
9	359571	69.100253279723	1.001
9	359582	69.150253279723	1
9	359725	69.200253279723	1.001
9	359734	69.250253279723	1
9	359879	69.300253279723	1.001
9	359888	69.350253279723	1
9	360012	69.400253279723	1.001
9	360023	69.450253279723	1
9	360166	69.500253279723	1.001
9	360175	69.550253279723	1
9	360320	69.600253279723	1.001
9	360329	69.650253279723	1
9	360453	69.700253279723	1.001
9	360464	69.750253279723	1
9	360607	69.800253279723	1.001
9	360616	69.850253279723	1
9	360761	69.900253279723	1.001
9	360770	69.950253279723	1
9	360894	70.000253279723	1.001
9	360905	70.050253279723	1
9	361048	70.100253279723	1.001
9	361057	70.150253279723	1
9	361202	70.200253279723	1.001
9	361211	70.250253279723	1
9	361335	70.300253279723	1.001
9	361346	70.350253279723	1
9	361489	70.400253279723	1.001
9	361498	70.450253279723	1
9	361643	70.500253279723	1.001
9	361652	70.550253279723	1
9	361776	70.600253279723	1.001
9	361787	70.650253279723	1
9	361930	70.700253279723	1.001
9	361936	70.750253279723	1
9	361995	70.800253279723	1.001
9	361999	70.850253279723	1
9	362045	70.900253279723	1.001
9	362051	70.950253279723	1
9	362095	71.000253279723	1.001
9	362101	71.050253279723	1
9	362160	71.100253279723	1.001
9	362164	71.150253279723	1
9	362210	71.200253279723	1.001
9	362216	71.250253279723	1
9	362260	71.300253279723	1.001
9	362266	71.350253279723	1
9	362325	71.400253279723	1.001
9	362329	71.450253279723	1
9	362375	71.500253279723	1.001
9	362381	71.550253279723	1
9	362425	71.600253279723	1.001
9	362431	71.650253279723	1
9	362490	71.700253279723	1.001
9	362494	71.750253279723	1
9	362540	71.800253279723	1.001
9	362546	71.850253279723	1
9	362590	71.900253279723	1.001
9	362596	71.950253279723	1
9	362655	72.000253279723	1.001
9	362659	72.050253279723	1
9	362705	72.100253279723	1.001
9	362711	72.150253279723	1
9	362755	72.200253279723	1.001
9	362761	72.250253279723	1
9	362820	72.300253279723	1.001
9	362824	72.350253279723	1
9	362870	72.400253279723	1.001
9	362876	72.450253279723	1
9	362920	72.500253279723	1.001
9	362926	72.550253279723	1
9	362985	72.600253279723	1.001
9	362989	72.650253279723	1
9	363035	72.700253279723	1.001
9	363041	72.750253279723	1
9	363085	72.800253279723	1.001
9	363091	72.850253279723	1
9	363150	72.900253279723	1.001
9	363154	72.950253279723	1
9	363200	73.000253279723	1.001
9	363206	73.050253279723	1
9	363250	73.100253279723	1.001
9	363256	73.150253279723	1
9	363315	73.200253279723	1.001
9	363319	73.250253279723	1
9	363365	73.300253279723	1.001
9	363371	73.350253279723	1
9	363415	73.400253279723	1.001
9	363421	73.450253279723	1
9	363480	73.500253279723	1.001
9	363484	73.550253279723	1
9	363529	73.600253279723	1.001
9	363530	73.650253279723	1
9	363531	73.700253279723	1.001
9	363532	73.750253279723	1
9	363533	73.800253279723	1.001
9	363534	73.850253279723	1
9	363535	73.900253279723	1.001
9	363536	73.950253279723	1
9	363537	74.000253279723	1.001
9	363538	74.050253279723	1
9	363539	74.100253279723	1.001
9	363540	74.150253279723	1
9	363541	74.200253279723	1.001
9	363542	74.250253279723	1
9	363543	74.300253279723	1.001
9	363544	74.350253279723	1
9	363545	74.400253279723	1.001
9	363546	74.450253279723	1
9	363547	74.500253279723	1.001
9	363548	74.550253279723	1
9	363549	74.600253279723	1.001
9	363550	74.650253279723	1
9	363551	74.700253279723	1.001
9	363552	74.750253279723	1
9	363553	74.800253279723	1.001
9	363554	74.850253279723	1
9	363555	74.900253279723	1.001
9	363556	74.950253279723	1
9	363557	75.000253279723	1.001
9	363558	75.050253279723	1
9	363559	75.100253279723	1.001
9	363560	75.150253279723	1
9	363561	75.200253279723	1.001
9	363562	75.250253279723	1
9	363563	75.300253279723	1.001
9	363564	75.350253279723	1
9	363565	75.400253279723	1.001
9	363566	75.450253279723	1
9	363567	75.500253279723	1.001
9	363568	75.550253279723	1
9	363569	75.600253279723	1.001
9	363570	75.650253279723	1
9	363571	75.700253279723	1.001
9	363572	75.750253279723	1
9	363573	75.800253279723	1.001
9	363574	75.850253279723	1
9	363575	75.900253279723	1.001
9	363576	75.950253279723	1
