version 2
run VoIP-20ms_200B-9-20160923-14:11:36-14631
attr configname VoIP-20ms_200B
attr datetime 20160923-14:11:36
attr experiment VoIP-20ms_200B
attr inifile omnetpp.ini
attr iterationvars ""
attr iterationvars2 $repetition=9
attr measurement ""
attr network SymScenerio
attr processid 14631
attr repetition 9
attr replication #9
attr resultdir results
attr runnumber 9
attr seedset 9
param **.coreDebug false
param **.debug false
param *.**.nic.mac1609_4.bitrate 18Mbps
param *.**.nic.mac1609_4.txPower 20mW
param *.**.nic.mac1609_4.useServiceChannel true
param *.**.nic.phy80211p.analogueModels "xmldoc(\"config.xml\")"
param *.**.nic.phy80211p.decider "xmldoc(\"config.xml\")"
param *.**.nic.phy80211p.sensitivity -89dBm
param *.**.nic.phy80211p.thermalNoise -110dBm
param *.**.nic.phy80211p.usePropagationDelay true
param *.**.nic.phy80211p.useThermalNoise true
param *.annotations.draw false
param *.connectionManager.alpha 2.0
param *.connectionManager.carrierFrequency "5.890e9 Hz"
param *.connectionManager.pMax 20mW
param *.connectionManager.sat -89dBm
param *.connectionManager.sendDirect true
param *.manager.autoShutdown true
param *.manager.host "\"localhost\""
param *.manager.launchConfig "xmldoc(\"map.launchd.xml\")"
param *.manager.margin 25
param *.manager.moduleDisplayString "\"\""
param *.manager.moduleName "\"node\""
param *.manager.moduleType "\"symulacja.veins.nodes.Car\""
param *.manager.port 9999
param *.manager.updateInterval 0.1s
param *.node[*].appl.beaconInterval 1s
param *.node[*].appl.beaconPriority 3
param *.node[*].appl.dataOnSch false
param *.node[*].appl.dataPriority 2
param *.node[*].appl.debug false
param *.node[*].appl.maxOffset 0.005s
param *.node[*].appl.sendBeacons false
param *.node[*].appl.sendData true
param *.node[*].appl.sendVoIP true
param *.node[*].appl.voipInterval 0.020s
param *.node[*].appl.voipLengthBits 1600bit
param *.node[*].appl.voipOnSch true
param *.node[*].appl.voipPriority 3
param *.node[*].applType "\"Sym11p\""
param *.node[*].veinsmobility.x 0
param *.node[*].veinsmobility.y 0
param *.node[*].veinsmobility.z 1.895
param *.node[*].veinsmobilityType "\"symulacja.veins.modules.mobility.traci.TraCIMobility\""
param *.playgroundSizeX 9000m
param *.playgroundSizeY 9000m
param *.playgroundSizeZ 50m
param *.rsu[*].appl.beaconInterval 1s
param *.rsu[*].appl.beaconPriority 3
param *.rsu[*].appl.dataOnSch false
param *.rsu[*].appl.dataPriority 2
param *.rsu[*].appl.debug false
param *.rsu[*].appl.headerLength "256 bit"
param *.rsu[*].appl.maxOffset 0.005s
param *.rsu[*].appl.sendBeacons false
param *.rsu[*].appl.sendData false
param *.rsu[*].appl.sendVoIP false
param *.rsu[*].applType "\"SymRSU11p\""
param *.rsu[0].mobility.x 2160
param *.rsu[0].mobility.y 3100
param *.rsu[0].mobility.z 3
param *.world.use2D false
param *.world.useTorus false

vector 14  SymScenerio.rsu[0].nic.mac1609_4  "Interwały kanałów"  ETV
vector 23  SymScenerio.node[0].veinsmobility  posx  ETV
vector 24  SymScenerio.node[0].veinsmobility  posy  ETV
vector 22  SymScenerio.node[0].nic.mac1609_4  "Interwały kanałów"  ETV
vector 25  SymScenerio.node[0].veinsmobility  speed  ETV
vector 15  SymScenerio.node[0].appl  "TX Packets"  ETV
vector 16  SymScenerio.node[0].appl  "TX Total"  ETV
vector 17  SymScenerio.node[0].appl  Pakietyzacja  ETV
vector 5  SymScenerio.rsu[0].appl  nodeALL:vector  ETV
attr source  nodeALL
attr title  "Opoznienia ALL, vector"
vector 9  SymScenerio.rsu[0].appl  "RX Packet"  ETV
vector 0  SymScenerio.rsu[0].appl  node0:vector  ETV
attr source  node0
attr title  "Opoznienia node0, vector"
vector 26  SymScenerio.node[0].veinsmobility  acceleration  ETV
vector 27  SymScenerio.node[0].veinsmobility  co2emission  ETV
vector 36  SymScenerio.node[1].veinsmobility  posx  ETV
vector 37  SymScenerio.node[1].veinsmobility  posy  ETV
vector 35  SymScenerio.node[1].nic.mac1609_4  "Interwały kanałów"  ETV
vector 38  SymScenerio.node[1].veinsmobility  speed  ETV
vector 39  SymScenerio.node[1].veinsmobility  acceleration  ETV
vector 40  SymScenerio.node[1].veinsmobility  co2emission  ETV
vector 28  SymScenerio.node[1].appl  "TX Packets"  ETV
vector 29  SymScenerio.node[1].appl  "TX Total"  ETV
vector 30  SymScenerio.node[1].appl  Pakietyzacja  ETV
vector 1  SymScenerio.rsu[0].appl  node1:vector  ETV
attr source  node1
attr title  "Opoznienia node1, vector"
vector 49  SymScenerio.node[2].veinsmobility  posx  ETV
vector 50  SymScenerio.node[2].veinsmobility  posy  ETV
vector 48  SymScenerio.node[2].nic.mac1609_4  "Interwały kanałów"  ETV
vector 51  SymScenerio.node[2].veinsmobility  speed  ETV
vector 52  SymScenerio.node[2].veinsmobility  acceleration  ETV
vector 53  SymScenerio.node[2].veinsmobility  co2emission  ETV
vector 41  SymScenerio.node[2].appl  "TX Packets"  ETV
vector 42  SymScenerio.node[2].appl  "TX Total"  ETV
vector 43  SymScenerio.node[2].appl  Pakietyzacja  ETV
vector 2  SymScenerio.rsu[0].appl  node2:vector  ETV
attr source  node2
attr title  "Opoznienia node2, vector"
vector 62  SymScenerio.node[3].veinsmobility  posx  ETV
vector 63  SymScenerio.node[3].veinsmobility  posy  ETV
vector 61  SymScenerio.node[3].nic.mac1609_4  "Interwały kanałów"  ETV
vector 64  SymScenerio.node[3].veinsmobility  speed  ETV
vector 65  SymScenerio.node[3].veinsmobility  acceleration  ETV
vector 66  SymScenerio.node[3].veinsmobility  co2emission  ETV
vector 54  SymScenerio.node[3].appl  "TX Packets"  ETV
vector 55  SymScenerio.node[3].appl  "TX Total"  ETV
vector 56  SymScenerio.node[3].appl  Pakietyzacja  ETV
vector 3  SymScenerio.rsu[0].appl  node3:vector  ETV
attr source  node3
attr title  "Opoznienia node3, vector"
vector 75  SymScenerio.node[4].veinsmobility  posx  ETV
vector 76  SymScenerio.node[4].veinsmobility  posy  ETV
vector 74  SymScenerio.node[4].nic.mac1609_4  "Interwały kanałów"  ETV
vector 77  SymScenerio.node[4].veinsmobility  speed  ETV
vector 78  SymScenerio.node[4].veinsmobility  acceleration  ETV
vector 79  SymScenerio.node[4].veinsmobility  co2emission  ETV
vector 67  SymScenerio.node[4].appl  "TX Packets"  ETV
vector 68  SymScenerio.node[4].appl  "TX Total"  ETV
vector 69  SymScenerio.node[4].appl  Pakietyzacja  ETV
vector 4  SymScenerio.rsu[0].appl  node4:vector  ETV
attr source  node4
attr title  "Opoznienia node4, vector"
17	10	0.241055546054	1.002
17	27	0.261055546054	1.002
17	42	0.281055546054	1.002
17	60	0.301055546054	1.002
17	62	0.321055546054	1.002
17	64	0.341055546054	1.002
17	107	0.361055546054	1.002
17	122	0.381055546054	1.002
17	140	0.401055546054	1.002
17	142	0.421055546054	1.002
17	144	0.441055546054	1.002
17	187	0.461055546054	1.002
17	202	0.481055546054	1.002
17	220	0.501055546054	1.002
17	222	0.521055546054	1.002
17	224	0.541055546054	1.002
17	267	0.561055546054	1.002
17	282	0.581055546054	1.002
17	300	0.601055546054	1.002
17	302	0.621055546054	1.002
17	304	0.641055546054	1.002
17	347	0.661055546054	1.002
17	362	0.681055546054	1.002
17	380	0.701055546054	1.002
17	382	0.721055546054	1.002
17	384	0.741055546054	1.002
17	427	0.761055546054	1.002
17	442	0.781055546054	1.002
17	460	0.801055546054	1.002
17	462	0.821055546054	1.002
17	464	0.841055546054	1.002
17	507	0.861055546054	1.002
17	522	0.881055546054	1.002
17	540	0.901055546054	1.002
17	542	0.921055546054	1.002
17	544	0.941055546054	1.002
17	587	0.961055546054	1.002
17	602	0.981055546054	1.002
17	620	1.001055546054	1.002
17	622	1.021055546054	1.002
17	624	1.041055546054	1.002
17	667	1.061055546054	1.002
17	682	1.081055546054	1.002
17	700	1.101055546054	1.002
17	702	1.121055546054	1.002
17	704	1.141055546054	1.002
17	747	1.161055546054	1.002
17	762	1.181055546054	1.002
17	780	1.201055546054	1.002
17	782	1.221055546054	1.002
17	784	1.241055546054	1.002
17	827	1.261055546054	1.002
17	842	1.281055546054	1.002
17	860	1.301055546054	1.002
17	862	1.321055546054	1.002
17	864	1.341055546054	1.002
17	907	1.361055546054	1.002
17	922	1.381055546054	1.002
17	940	1.401055546054	1.002
17	942	1.421055546054	1.002
17	944	1.441055546054	1.002
17	987	1.461055546054	1.002
17	1002	1.481055546054	1.002
17	1020	1.501055546054	1.002
17	1022	1.521055546054	1.002
17	1024	1.541055546054	1.002
17	1067	1.561055546054	1.002
17	1082	1.581055546054	1.002
17	1100	1.601055546054	1.002
17	1102	1.621055546054	1.002
17	1104	1.641055546054	1.002
17	1147	1.661055546054	1.002
17	1162	1.681055546054	1.002
17	1180	1.701055546054	1.002
17	1182	1.721055546054	1.002
17	1184	1.741055546054	1.002
17	1227	1.761055546054	1.002
17	1242	1.781055546054	1.002
17	1260	1.801055546054	1.002
17	1262	1.821055546054	1.002
17	1264	1.841055546054	1.002
17	1307	1.861055546054	1.002
17	1322	1.881055546054	1.002
17	1340	1.901055546054	1.002
17	1342	1.921055546054	1.002
17	1344	1.941055546054	1.002
17	1387	1.961055546054	1.002
17	1402	1.981055546054	1.002
17	1420	2.001055546054	1.002
17	1422	2.021055546054	1.002
17	1424	2.041055546054	1.002
17	1467	2.061055546054	1.002
17	1482	2.081055546054	1.002
17	1500	2.101055546054	1.002
17	1502	2.121055546054	1.002
17	1504	2.141055546054	1.002
17	1547	2.161055546054	1.002
17	1562	2.181055546054	1.002
17	1580	2.201055546054	1.002
17	1582	2.221055546054	1.002
17	1584	2.241055546054	1.002
17	1627	2.261055546054	1.002
17	1642	2.281055546054	1.002
17	1660	2.301055546054	1.002
17	1662	2.321055546054	1.002
17	1664	2.341055546054	1.002
17	1707	2.361055546054	1.002
17	1722	2.381055546054	1.002
17	1740	2.401055546054	1.002
17	1742	2.421055546054	1.002
17	1744	2.441055546054	1.002
17	1787	2.461055546054	1.002
17	1802	2.481055546054	1.002
17	1820	2.501055546054	1.002
17	1822	2.521055546054	1.002
17	1824	2.541055546054	1.002
17	1867	2.561055546054	1.002
17	1882	2.581055546054	1.002
17	1900	2.601055546054	1.002
17	1902	2.621055546054	1.002
17	1904	2.641055546054	1.002
17	1947	2.661055546054	1.002
17	1962	2.681055546054	1.002
17	1980	2.701055546054	1.002
17	1982	2.721055546054	1.002
17	1984	2.741055546054	1.002
17	2027	2.761055546054	1.002
17	2042	2.781055546054	1.002
17	2060	2.801055546054	1.002
17	2062	2.821055546054	1.002
17	2064	2.841055546054	1.002
17	2107	2.861055546054	1.002
17	2122	2.881055546054	1.002
17	2140	2.901055546054	1.002
17	2142	2.921055546054	1.002
17	2144	2.941055546054	1.002
17	2187	2.961055546054	1.002
17	2202	2.981055546054	1.002
17	2220	3.001055546054	1.002
17	2222	3.021055546054	1.002
17	2224	3.041055546054	1.002
17	2267	3.061055546054	1.002
17	2282	3.081055546054	1.002
17	2300	3.101055546054	1.002
17	2302	3.121055546054	1.002
17	2304	3.141055546054	1.002
17	2366	3.161055546054	1.002
17	2387	3.181055546054	1.002
17	2412	3.201055546054	1.002
17	2414	3.221055546054	1.002
17	2416	3.241055546054	1.002
17	2478	3.261055546054	1.002
17	2499	3.281055546054	1.002
17	2524	3.301055546054	1.002
17	2526	3.321055546054	1.002
17	2528	3.341055546054	1.002
17	2611	3.361055546054	1.002
17	2653	3.381055546054	1.002
17	2699	3.401055546054	1.002
17	2703	3.421055546054	1.002
17	2707	3.441055546054	1.002
17	2828	3.461055546054	1.002
17	2870	3.481055546054	1.002
17	2916	3.501055546054	1.002
17	2920	3.521055546054	1.002
17	2924	3.541055546054	1.002
17	3045	3.561055546054	1.002
17	3087	3.581055546054	1.002
17	3133	3.601055546054	1.002
17	3137	3.621055546054	1.002
17	3141	3.641055546054	1.002
17	3255	3.661055546054	1.002
17	3297	3.681055546054	1.002
17	3343	3.701055546054	1.002
17	3347	3.721055546054	1.002
17	3351	3.741055546054	1.002
17	3472	3.761055546054	1.002
17	3514	3.781055546054	1.002
17	3560	3.801055546054	1.002
17	3564	3.821055546054	1.002
17	3568	3.841055546054	1.002
17	3689	3.861055546054	1.002
17	3731	3.881055546054	1.002
17	3777	3.901055546054	1.002
17	3781	3.921055546054	1.002
17	3785	3.941055546054	1.002
17	3906	3.961055546054	1.002
17	3948	3.981055546054	1.002
17	3994	4.001055546054	1.002
17	3998	4.021055546054	1.002
17	4002	4.041055546054	1.002
17	4123	4.061055546054	1.002
17	4165	4.081055546054	1.002
17	4211	4.101055546054	1.002
17	4215	4.121055546054	1.002
17	4219	4.141055546054	1.002
17	4340	4.161055546054	1.002
17	4382	4.181055546054	1.002
17	4428	4.201055546054	1.002
17	4432	4.221055546054	1.002
17	4436	4.241055546054	1.002
17	4550	4.261055546054	1.002
17	4592	4.281055546054	1.002
17	4638	4.301055546054	1.002
17	4642	4.321055546054	1.002
17	4646	4.341055546054	1.002
17	4760	4.361055546054	1.002
17	4802	4.381055546054	1.002
17	4848	4.401055546054	1.002
17	4852	4.421055546054	1.002
17	4856	4.441055546054	1.002
17	4970	4.461055546054	1.002
17	5012	4.481055546054	1.002
17	5058	4.501055546054	1.002
17	5062	4.521055546054	1.002
17	5066	4.541055546054	1.002
17	5187	4.561055546054	1.002
17	5229	4.581055546054	1.002
17	5275	4.601055546054	1.002
17	5279	4.621055546054	1.002
17	5283	4.641055546054	1.002
17	5404	4.661055546054	1.002
17	5446	4.681055546054	1.002
17	5492	4.701055546054	1.002
17	5496	4.721055546054	1.002
17	5500	4.741055546054	1.002
17	5621	4.761055546054	1.002
17	5663	4.781055546054	1.002
17	5709	4.801055546054	1.002
17	5713	4.821055546054	1.002
17	5717	4.841055546054	1.002
17	5838	4.861055546054	1.002
17	5880	4.881055546054	1.002
17	5926	4.901055546054	1.002
17	5930	4.921055546054	1.002
17	5934	4.941055546054	1.002
17	6055	4.961055546054	1.002
17	6097	4.981055546054	1.002
17	6143	5.001055546054	1.002
17	6147	5.021055546054	1.002
17	6151	5.041055546054	1.002
17	6272	5.061055546054	1.002
17	6314	5.081055546054	1.002
17	6360	5.101055546054	1.002
17	6364	5.121055546054	1.002
17	6368	5.141055546054	1.002
17	6489	5.161055546054	1.002
17	6531	5.181055546054	1.002
17	6577	5.201055546054	1.002
17	6581	5.221055546054	1.002
17	6585	5.241055546054	1.002
17	6699	5.261055546054	1.002
17	6741	5.281055546054	1.002
17	6787	5.301055546054	1.002
17	6791	5.321055546054	1.002
17	6795	5.341055546054	1.002
17	6909	5.361055546054	1.002
17	6951	5.381055546054	1.002
17	6997	5.401055546054	1.002
17	7001	5.421055546054	1.002
17	7005	5.441055546054	1.002
17	7126	5.461055546054	1.002
17	7168	5.481055546054	1.002
17	7214	5.501055546054	1.002
17	7218	5.521055546054	1.002
17	7222	5.541055546054	1.002
17	7343	5.561055546054	1.002
17	7385	5.581055546054	1.002
17	7431	5.601055546054	1.002
17	7435	5.621055546054	1.002
17	7439	5.641055546054	1.002
17	7560	5.661055546054	1.002
17	7602	5.681055546054	1.002
17	7648	5.701055546054	1.002
17	7652	5.721055546054	1.002
17	7656	5.741055546054	1.002
17	7777	5.761055546054	1.002
17	7819	5.781055546054	1.002
17	7865	5.801055546054	1.002
17	7869	5.821055546054	1.002
17	7873	5.841055546054	1.002
17	7994	5.861055546054	1.002
17	8036	5.881055546054	1.002
17	8082	5.901055546054	1.002
17	8086	5.921055546054	1.002
17	8090	5.941055546054	1.002
17	8204	5.961055546054	1.002
17	8246	5.981055546054	1.002
17	8292	6.001055546054	1.002
17	8296	6.021055546054	1.002
17	8300	6.041055546054	1.002
17	8421	6.061055546054	1.002
17	8463	6.081055546054	1.002
17	8509	6.101055546054	1.002
17	8513	6.121055546054	1.002
17	8517	6.141055546054	1.002
17	8675	6.161055546054	1.002
17	8729	6.181055546054	1.002
17	8788	6.201055546054	1.002
17	8792	6.221055546054	1.002
17	8796	6.241055546054	1.002
17	8954	6.261055546054	1.002
17	9008	6.281055546054	1.002
17	9067	6.301055546054	1.002
17	9071	6.321055546054	1.002
17	9075	6.341055546054	1.002
17	9223	6.361055546054	1.002
17	9277	6.381055546054	1.002
17	9336	6.401055546054	1.002
17	9340	6.421055546054	1.002
17	9344	6.441055546054	1.002
17	9502	6.461055546054	1.002
17	9556	6.481055546054	1.002
17	9615	6.501055546054	1.002
17	9619	6.521055546054	1.002
17	9623	6.541055546054	1.002
17	9781	6.561055546054	1.002
17	9835	6.581055546054	1.002
17	9894	6.601055546054	1.002
17	9898	6.621055546054	1.002
17	9902	6.641055546054	1.002
17	10060	6.661055546054	1.002
17	10114	6.681055546054	1.002
17	10173	6.701055546054	1.002
17	10177	6.721055546054	1.002
17	10181	6.741055546054	1.002
17	10339	6.761055546054	1.002
17	10393	6.781055546054	1.002
17	10452	6.801055546054	1.002
17	10456	6.821055546054	1.002
17	10461	6.841055546054	1.002
17	10636	6.861055546054	1.002
17	10717	6.881055546054	1.002
17	10803	6.901055546054	1.002
17	10809	6.921055546054	1.002
17	10815	6.941055546054	1.002
17	11030	6.961055546054	1.002
17	11111	6.981055546054	1.002
17	11197	7.001055546054	1.002
17	11203	7.021055546054	1.002
17	11209	7.041055546054	1.002
17	11424	7.061055546054	1.002
17	11505	7.081055546054	1.002
17	11591	7.101055546054	1.002
17	11597	7.121055546054	1.002
17	11603	7.141055546054	1.002
17	11828	7.161055546054	1.002
17	11909	7.181055546054	1.002
17	11995	7.201055546054	1.002
17	12001	7.221055546054	1.002
17	12007	7.241055546054	1.002
17	12232	7.261055546054	1.002
17	12313	7.281055546054	1.002
17	12399	7.301055546054	1.002
17	12405	7.321055546054	1.002
17	12411	7.341055546054	1.002
17	12636	7.361055546054	1.002
17	12717	7.381055546054	1.002
17	12803	7.401055546054	1.002
17	12809	7.421055546054	1.002
17	12815	7.441055546054	1.002
17	13033	7.461055546054	1.002
17	13114	7.481055546054	1.002
17	13200	7.501055546054	1.002
17	13206	7.521055546054	1.002
17	13212	7.541055546054	1.002
17	13413	7.561055546054	1.002
17	13494	7.581055546054	1.002
17	13580	7.601055546054	1.002
17	13586	7.621055546054	1.002
17	13592	7.641055546054	1.002
17	13807	7.661055546054	1.002
17	13888	7.681055546054	1.002
17	13974	7.701055546054	1.002
17	13980	7.721055546054	1.002
17	13986	7.741055546054	1.002
17	14194	7.761055546054	1.002
17	14275	7.781055546054	1.002
17	14361	7.801055546054	1.002
17	14367	7.821055546054	1.002
17	14373	7.841055546054	1.002
17	14598	7.861055546054	1.002
17	14679	7.881055546054	1.002
17	14765	7.901055546054	1.002
17	14771	7.921055546054	1.002
17	14777	7.941055546054	1.002
17	14975	7.961055546054	1.002
17	15056	7.981055546054	1.002
17	15142	8.001055546054	1.002
17	15148	8.021055546054	1.002
17	15154	8.041055546054	1.002
17	15379	8.061055546054	1.002
17	15460	8.081055546054	1.002
17	15546	8.101055546054	1.002
17	15552	8.121055546054	1.002
17	15558	8.141055546054	1.002
17	15783	8.161055546054	1.002
17	15864	8.181055546054	1.002
17	15950	8.201055546054	1.002
17	15956	8.221055546054	1.002
17	15962	8.241055546054	1.002
17	16180	8.261055546054	1.002
17	16261	8.281055546054	1.002
17	16347	8.301055546054	1.002
17	16353	8.321055546054	1.002
17	16359	8.341055546054	1.002
17	16567	8.361055546054	1.002
17	16648	8.381055546054	1.002
17	16734	8.401055546054	1.002
17	16740	8.421055546054	1.002
17	16746	8.441055546054	1.002
17	16961	8.461055546054	1.002
17	17042	8.481055546054	1.002
17	17128	8.501055546054	1.002
17	17134	8.521055546054	1.002
17	17140	8.541055546054	1.002
17	17358	8.561055546054	1.002
17	17439	8.581055546054	1.002
17	17525	8.601055546054	1.002
17	17531	8.621055546054	1.002
17	17537	8.641055546054	1.002
17	17762	8.661055546054	1.002
17	17843	8.681055546054	1.002
17	17929	8.701055546054	1.002
17	17935	8.721055546054	1.002
17	17941	8.741055546054	1.002
17	18146	8.761055546054	1.002
17	18227	8.781055546054	1.002
17	18313	8.801055546054	1.002
17	18319	8.821055546054	1.002
17	18325	8.841055546054	1.002
17	18550	8.861055546054	1.002
17	18631	8.881055546054	1.002
17	18717	8.901055546054	1.002
17	18723	8.921055546054	1.002
17	18729	8.941055546054	1.002
17	18954	8.961055546054	1.002
17	19035	8.981055546054	1.002
17	19121	9.001055546054	1.002
17	19127	9.021055546054	1.002
17	19133	9.041055546054	1.002
17	19348	9.061055546054	1.002
17	19429	9.081055546054	1.002
17	19515	9.101055546054	1.002
17	19521	9.121055546054	1.002
17	19527	9.141055546054	1.002
17	19791	9.161055546054	1.002
17	19890	9.181055546054	1.002
17	19995	9.201055546054	1.002
17	20001	9.221055546054	1.002
17	20007	9.241055546054	1.002
17	20275	9.261055546054	1.002
17	20374	9.281055546054	1.002
17	20479	9.301055546054	1.002
17	20485	9.321055546054	1.002
17	20491	9.341055546054	1.002
17	20781	9.361055546054	1.002
17	20880	9.381055546054	1.002
17	20985	9.401055546054	1.002
17	20991	9.421055546054	1.002
17	20997	9.441055546054	1.002
17	21294	9.461055546054	1.002
17	21426	9.481055546054	1.002
17	21564	9.501055546054	1.002
17	21572	9.521055546054	1.002
17	21580	9.541055546054	1.002
17	21939	9.561055546054	1.002
17	22071	9.581055546054	1.002
17	22209	9.601055546054	1.002
17	22217	9.621055546054	1.002
17	22225	9.641055546054	1.002
17	22584	9.661055546054	1.002
17	22716	9.681055546054	1.002
17	22854	9.701055546054	1.002
17	22862	9.721055546054	1.002
17	22870	9.741055546054	1.002
17	23207	9.761055546054	1.002
17	23339	9.781055546054	1.002
17	23477	9.801055546054	1.002
17	23485	9.821055546054	1.002
17	23493	9.841055546054	1.002
17	23843	9.861055546054	1.002
17	23975	9.881055546054	1.002
17	24113	9.901055546054	1.002
17	24121	9.921055546054	1.002
17	24129	9.941055546054	1.002
17	24479	9.961055546054	1.002
17	24611	9.981055546054	1.002
17	24749	10.001055546054	1.002
17	24757	10.021055546054	1.002
17	24765	10.041055546054	1.002
17	25124	10.061055546054	1.002
17	25256	10.081055546054	1.002
17	25394	10.101055546054	1.002
17	25402	10.121055546054	1.002
17	25410	10.141055546054	1.002
17	25743	10.161055546054	1.002
17	25875	10.181055546054	1.002
17	26013	10.201055546054	1.002
17	26021	10.221055546054	1.002
17	26029	10.241055546054	1.002
17	26366	10.261055546054	1.002
17	26498	10.281055546054	1.002
17	26636	10.301055546054	1.002
17	26644	10.321055546054	1.002
17	26652	10.341055546054	1.002
17	27015	10.361055546054	1.002
17	27147	10.381055546054	1.002
17	27285	10.401055546054	1.002
17	27293	10.421055546054	1.002
17	27301	10.441055546054	1.002
17	27638	10.461055546054	1.002
17	27770	10.481055546054	1.002
17	27908	10.501055546054	1.002
17	27916	10.521055546054	1.002
17	27924	10.541055546054	1.002
17	28261	10.561055546054	1.002
17	28393	10.581055546054	1.002
17	28531	10.601055546054	1.002
17	28539	10.621055546054	1.002
17	28547	10.641055546054	1.002
17	28910	10.661055546054	1.002
17	29042	10.681055546054	1.002
17	29180	10.701055546054	1.002
17	29188	10.721055546054	1.002
17	29196	10.741055546054	1.002
17	29542	10.761055546054	1.002
17	29674	10.781055546054	1.002
17	29812	10.801055546054	1.002
17	29820	10.821055546054	1.002
17	29828	10.841055546054	1.002
17	30169	10.861055546054	1.002
17	30301	10.881055546054	1.002
17	30439	10.901055546054	1.002
17	30447	10.921055546054	1.002
17	30455	10.941055546054	1.002
17	30792	10.961055546054	1.002
17	30924	10.981055546054	1.002
17	31062	11.001055546054	1.002
17	31070	11.021055546054	1.002
17	31078	11.041055546054	1.002
17	31424	11.061055546054	1.002
17	31556	11.081055546054	1.002
17	31694	11.101055546054	1.002
17	31702	11.121055546054	1.002
17	31710	11.141055546054	1.002
17	32047	11.161055546054	1.002
17	32179	11.181055546054	1.002
17	32317	11.201055546054	1.002
17	32325	11.221055546054	1.002
17	32333	11.241055546054	1.002
17	32679	11.261055546054	1.002
17	32811	11.281055546054	1.002
17	32949	11.301055546054	1.002
17	32957	11.321055546054	1.002
17	32965	11.341055546054	1.002
17	33302	11.361055546054	1.002
17	33434	11.381055546054	1.002
17	33572	11.401055546054	1.002
17	33580	11.421055546054	1.002
17	33588	11.441055546054	1.002
17	33947	11.461055546054	1.002
17	34079	11.481055546054	1.002
17	34217	11.501055546054	1.002
17	34225	11.521055546054	1.002
17	34233	11.541055546054	1.002
17	34592	11.561055546054	1.002
17	34724	11.581055546054	1.002
17	34862	11.601055546054	1.002
17	34870	11.621055546054	1.002
17	34878	11.641055546054	1.002
17	35237	11.661055546054	1.002
17	35369	11.681055546054	1.002
17	35507	11.701055546054	1.002
17	35515	11.721055546054	1.002
17	35523	11.741055546054	1.002
17	35847	11.761055546054	1.002
17	35979	11.781055546054	1.002
17	36117	11.801055546054	1.002
17	36125	11.821055546054	1.002
17	36133	11.841055546054	1.002
17	36479	11.861055546054	1.002
17	36611	11.881055546054	1.002
17	36749	11.901055546054	1.002
17	36757	11.921055546054	1.002
17	36765	11.941055546054	1.002
17	37102	11.961055546054	1.002
17	37234	11.981055546054	1.002
17	37372	12.001055546054	1.002
17	37380	12.021055546054	1.002
17	37388	12.041055546054	1.002
17	37738	12.061055546054	1.002
17	37870	12.081055546054	1.002
17	38008	12.101055546054	1.002
17	38016	12.121055546054	1.002
17	38024	12.141055546054	1.002
17	38439	12.161055546054	1.002
17	38595	12.181055546054	1.002
17	38758	12.201055546054	1.002
17	38766	12.221055546054	1.002
17	38774	12.241055546054	1.002
17	39205	12.261055546054	1.002
17	39361	12.281055546054	1.002
17	39524	12.301055546054	1.002
17	39532	12.321055546054	1.002
17	39540	12.341055546054	1.002
17	39939	12.361055546054	1.002
17	40095	12.381055546054	1.002
17	40258	12.401055546054	1.002
17	40266	12.421055546054	1.002
17	40274	12.441055546054	1.002
17	40679	12.461055546054	1.002
17	40835	12.481055546054	1.002
17	40998	12.501055546054	1.002
17	41006	12.521055546054	1.002
17	41014	12.541055546054	1.002
17	41397	12.561055546054	1.002
17	41553	12.581055546054	1.002
17	41716	12.601055546054	1.002
17	41724	12.621055546054	1.002
17	41734	12.641055546054	1.002
17	42205	12.661055546054	1.002
17	42400	12.681055546054	1.002
17	42602	12.701055546054	1.002
17	42612	12.721055546054	1.002
17	42622	12.741055546054	1.002
17	43120	12.761055546054	1.002
17	43315	12.781055546054	1.002
17	43517	12.801055546054	1.002
17	43527	12.821055546054	1.002
17	43537	12.841055546054	1.002
17	44023	12.861055546054	1.002
17	44218	12.881055546054	1.002
17	44420	12.901055546054	1.002
17	44430	12.921055546054	1.002
17	44440	12.941055546054	1.002
17	44946	12.961055546054	1.002
17	45141	12.981055546054	1.002
17	45343	13.001055546054	1.002
17	45353	13.021055546054	1.002
17	45363	13.041055546054	1.002
17	45853	13.061055546054	1.002
17	46048	13.081055546054	1.002
17	46250	13.101055546054	1.002
17	46260	13.121055546054	1.002
17	46270	13.141055546054	1.002
17	46766	13.161055546054	1.002
17	46961	13.181055546054	1.002
17	47163	13.201055546054	1.002
17	47173	13.221055546054	1.002
17	47183	13.241055546054	1.002
17	47679	13.261055546054	1.002
17	47874	13.281055546054	1.002
17	48076	13.301055546054	1.002
17	48086	13.321055546054	1.002
17	48096	13.341055546054	1.002
17	48580	13.361055546054	1.002
17	48775	13.381055546054	1.002
17	48977	13.401055546054	1.002
17	48987	13.421055546054	1.002
17	48997	13.441055546054	1.002
17	49509	13.461055546054	1.002
17	49704	13.481055546054	1.002
17	49906	13.501055546054	1.002
17	49916	13.521055546054	1.002
17	49926	13.541055546054	1.002
17	50428	13.561055546054	1.002
17	50623	13.581055546054	1.002
17	50825	13.601055546054	1.002
17	50835	13.621055546054	1.002
17	50845	13.641055546054	1.002
17	51374	13.661055546054	1.002
17	51569	13.681055546054	1.002
17	51771	13.701055546054	1.002
17	51781	13.721055546054	1.002
17	51791	13.741055546054	1.002
17	52288	13.761055546054	1.002
17	52483	13.781055546054	1.002
17	52685	13.801055546054	1.002
17	52695	13.821055546054	1.002
17	52705	13.841055546054	1.002
17	53201	13.861055546054	1.002
17	53396	13.881055546054	1.002
17	53598	13.901055546054	1.002
17	53608	13.921055546054	1.002
17	53618	13.941055546054	1.002
17	54114	13.961055546054	1.002
17	54309	13.981055546054	1.002
17	54511	14.001055546054	1.002
17	54521	14.021055546054	1.002
17	54531	14.041055546054	1.002
17	55027	14.061055546054	1.002
17	55222	14.081055546054	1.002
17	55424	14.101055546054	1.002
17	55434	14.121055546054	1.002
17	55444	14.141055546054	1.002
17	55945	14.161055546054	1.002
17	56140	14.181055546054	1.002
17	56342	14.201055546054	1.002
17	56352	14.221055546054	1.002
17	56362	14.241055546054	1.002
17	56868	14.261055546054	1.002
17	57063	14.281055546054	1.002
17	57265	14.301055546054	1.002
17	57275	14.321055546054	1.002
17	57285	14.341055546054	1.002
17	57764	14.361055546054	1.002
17	57959	14.381055546054	1.002
17	58161	14.401055546054	1.002
17	58171	14.421055546054	1.002
17	58181	14.441055546054	1.002
17	58682	14.461055546054	1.002
17	58877	14.481055546054	1.002
17	59079	14.501055546054	1.002
17	59089	14.521055546054	1.002
17	59099	14.541055546054	1.002
17	59600	14.561055546054	1.002
17	59795	14.581055546054	1.002
17	59997	14.601055546054	1.002
17	60007	14.621055546054	1.002
17	60017	14.641055546054	1.002
17	60491	14.661055546054	1.002
17	60686	14.681055546054	1.002
17	60888	14.701055546054	1.002
17	60898	14.721055546054	1.002
17	60908	14.741055546054	1.002
17	61393	14.761055546054	1.002
17	61588	14.781055546054	1.002
17	61790	14.801055546054	1.002
17	61800	14.821055546054	1.002
17	61810	14.841055546054	1.002
17	62307	14.861055546054	1.002
17	62502	14.881055546054	1.002
17	62704	14.901055546054	1.002
17	62714	14.921055546054	1.002
17	62724	14.941055546054	1.002
17	63204	14.961055546054	1.002
17	63399	14.981055546054	1.002
17	63601	15.001055546054	1.002
17	63611	15.021055546054	1.002
17	63621	15.041055546054	1.002
17	64133	15.061055546054	1.002
17	64328	15.081055546054	1.002
17	64530	15.101055546054	1.002
17	64540	15.121055546054	1.002
17	64550	15.141055546054	1.002
17	65062	15.161055546054	1.002
17	65257	15.181055546054	1.002
17	65459	15.201055546054	1.002
17	65469	15.221055546054	1.002
17	65479	15.241055546054	1.002
17	65975	15.261055546054	1.002
17	66170	15.281055546054	1.002
17	66372	15.301055546054	1.002
17	66382	15.321055546054	1.002
17	66392	15.341055546054	1.002
17	66888	15.361055546054	1.002
17	67083	15.381055546054	1.002
17	67285	15.401055546054	1.002
17	67295	15.421055546054	1.002
17	67305	15.441055546054	1.002
17	67790	15.461055546054	1.002
17	67985	15.481055546054	1.002
17	68187	15.501055546054	1.002
17	68197	15.521055546054	1.002
17	68207	15.541055546054	1.002
17	68681	15.561055546054	1.002
17	68876	15.581055546054	1.002
17	69078	15.601055546054	1.002
17	69088	15.621055546054	1.002
17	69098	15.641055546054	1.002
17	69599	15.661055546054	1.002
17	69794	15.681055546054	1.002
17	69996	15.701055546054	1.002
17	70006	15.721055546054	1.002
17	70016	15.741055546054	1.002
17	70517	15.761055546054	1.002
17	70712	15.781055546054	1.002
17	70914	15.801055546054	1.002
17	70924	15.821055546054	1.002
17	70934	15.841055546054	1.002
17	71419	15.861055546054	1.002
17	71614	15.881055546054	1.002
17	71816	15.901055546054	1.002
17	71826	15.921055546054	1.002
17	71836	15.941055546054	1.002
17	72332	15.961055546054	1.002
17	72527	15.981055546054	1.002
17	72729	16.001055546054	1.002
17	72739	16.021055546054	1.002
17	72749	16.041055546054	1.002
17	73239	16.061055546054	1.002
17	73434	16.081055546054	1.002
17	73636	16.101055546054	1.002
17	73646	16.121055546054	1.002
17	73656	16.141055546054	1.002
17	74163	16.161055546054	1.002
17	74358	16.181055546054	1.002
17	74560	16.201055546054	1.002
17	74570	16.221055546054	1.002
17	74580	16.241055546054	1.002
17	75060	16.261055546054	1.002
17	75255	16.281055546054	1.002
17	75457	16.301055546054	1.002
17	75467	16.321055546054	1.002
17	75477	16.341055546054	1.002
17	75989	16.361055546054	1.002
17	76184	16.381055546054	1.002
17	76386	16.401055546054	1.002
17	76396	16.421055546054	1.002
17	76406	16.441055546054	1.002
17	76886	16.461055546054	1.002
17	77081	16.481055546054	1.002
17	77283	16.501055546054	1.002
17	77293	16.521055546054	1.002
17	77303	16.541055546054	1.002
17	77799	16.561055546054	1.002
17	77994	16.581055546054	1.002
17	78196	16.601055546054	1.002
17	78206	16.621055546054	1.002
17	78216	16.641055546054	1.002
17	78690	16.661055546054	1.002
17	78885	16.681055546054	1.002
17	79087	16.701055546054	1.002
17	79097	16.721055546054	1.002
17	79107	16.741055546054	1.002
17	79587	16.761055546054	1.002
17	79782	16.781055546054	1.002
17	79984	16.801055546054	1.002
17	79994	16.821055546054	1.002
17	80004	16.841055546054	1.002
17	80478	16.861055546054	1.002
17	80673	16.881055546054	1.002
17	80875	16.901055546054	1.002
17	80885	16.921055546054	1.002
17	80895	16.941055546054	1.002
17	81391	16.961055546054	1.002
17	81586	16.981055546054	1.002
17	81788	17.001055546054	1.002
17	81798	17.021055546054	1.002
17	81808	17.041055546054	1.002
17	82309	17.061055546054	1.002
17	82504	17.081055546054	1.002
17	82706	17.101055546054	1.002
17	82716	17.121055546054	1.002
17	82726	17.141055546054	1.002
17	83233	17.161055546054	1.002
17	83428	17.181055546054	1.002
17	83630	17.201055546054	1.002
17	83640	17.221055546054	1.002
17	83650	17.241055546054	1.002
17	84151	17.261055546054	1.002
17	84346	17.281055546054	1.002
17	84548	17.301055546054	1.002
17	84558	17.321055546054	1.002
17	84568	17.341055546054	1.002
17	85074	17.361055546054	1.002
17	85269	17.381055546054	1.002
17	85471	17.401055546054	1.002
17	85481	17.421055546054	1.002
17	85491	17.441055546054	1.002
17	85971	17.461055546054	1.002
17	86166	17.481055546054	1.002
17	86368	17.501055546054	1.002
17	86378	17.521055546054	1.002
17	86388	17.541055546054	1.002
17	86900	17.561055546054	1.002
17	87095	17.581055546054	1.002
17	87297	17.601055546054	1.002
17	87307	17.621055546054	1.002
17	87317	17.641055546054	1.002
17	87802	17.661055546054	1.002
17	87997	17.681055546054	1.002
17	88199	17.701055546054	1.002
17	88209	17.721055546054	1.002
17	88219	17.741055546054	1.002
17	88747	17.761055546054	1.002
17	88942	17.781055546054	1.002
17	89144	17.801055546054	1.002
17	89154	17.821055546054	1.002
17	89164	17.841055546054	1.002
17	89665	17.861055546054	1.002
17	89860	17.881055546054	1.002
17	90062	17.901055546054	1.002
17	90072	17.921055546054	1.002
17	90082	17.941055546054	1.002
17	90599	17.961055546054	1.002
17	90794	17.981055546054	1.002
17	90996	18.001055546054	1.002
17	91006	18.021055546054	1.002
17	91016	18.041055546054	1.002
17	91496	18.061055546054	1.002
17	91691	18.081055546054	1.002
17	91893	18.101055546054	1.002
17	91903	18.121055546054	1.002
17	91913	18.141055546054	1.002
17	92398	18.161055546054	1.002
17	92593	18.181055546054	1.002
17	92795	18.201055546054	1.002
17	92805	18.221055546054	1.002
17	92815	18.241055546054	1.002
17	93305	18.261055546054	1.002
17	93500	18.281055546054	1.002
17	93702	18.301055546054	1.002
17	93712	18.321055546054	1.002
17	93722	18.341055546054	1.002
17	94207	18.361055546054	1.002
17	94402	18.381055546054	1.002
17	94604	18.401055546054	1.002
17	94614	18.421055546054	1.002
17	94624	18.441055546054	1.002
17	95114	18.461055546054	1.002
17	95309	18.481055546054	1.002
17	95511	18.501055546054	1.002
17	95521	18.521055546054	1.002
17	95531	18.541055546054	1.002
17	96027	18.561055546054	1.002
17	96222	18.581055546054	1.002
17	96424	18.601055546054	1.002
17	96434	18.621055546054	1.002
17	96444	18.641055546054	1.002
17	96945	18.661055546054	1.002
17	97140	18.681055546054	1.002
17	97342	18.701055546054	1.002
17	97352	18.721055546054	1.002
17	97362	18.741055546054	1.002
17	97858	18.761055546054	1.002
17	98053	18.781055546054	1.002
17	98255	18.801055546054	1.002
17	98265	18.821055546054	1.002
17	98275	18.841055546054	1.002
17	98755	18.861055546054	1.002
17	98950	18.881055546054	1.002
17	99152	18.901055546054	1.002
17	99162	18.921055546054	1.002
17	99172	18.941055546054	1.002
17	99668	18.961055546054	1.002
17	99863	18.981055546054	1.002
17	100065	19.001055546054	1.002
17	100075	19.021055546054	1.002
17	100085	19.041055546054	1.002
17	100597	19.061055546054	1.002
17	100792	19.081055546054	1.002
17	100994	19.101055546054	1.002
17	101004	19.121055546054	1.002
17	101014	19.141055546054	1.002
17	101510	19.161055546054	1.002
17	101705	19.181055546054	1.002
17	101907	19.201055546054	1.002
17	101917	19.221055546054	1.002
17	101927	19.241055546054	1.002
17	102423	19.261055546054	1.002
17	102618	19.281055546054	1.002
17	102820	19.301055546054	1.002
17	102830	19.321055546054	1.002
17	102840	19.341055546054	1.002
17	103330	19.361055546054	1.002
17	103525	19.381055546054	1.002
17	103727	19.401055546054	1.002
17	103737	19.421055546054	1.002
17	103747	19.441055546054	1.002
17	104248	19.461055546054	1.002
17	104443	19.481055546054	1.002
17	104645	19.501055546054	1.002
17	104655	19.521055546054	1.002
17	104665	19.541055546054	1.002
17	105156	19.561055546054	1.002
17	105351	19.581055546054	1.002
17	105553	19.601055546054	1.002
17	105563	19.621055546054	1.002
17	105573	19.641055546054	1.002
17	106052	19.661055546054	1.002
17	106247	19.681055546054	1.002
17	106449	19.701055546054	1.002
17	106459	19.721055546054	1.002
17	106469	19.741055546054	1.002
17	106992	19.761055546054	1.002
17	107187	19.781055546054	1.002
17	107389	19.801055546054	1.002
17	107399	19.821055546054	1.002
17	107409	19.841055546054	1.002
17	107916	19.861055546054	1.002
17	108111	19.881055546054	1.002
17	108313	19.901055546054	1.002
17	108323	19.921055546054	1.002
17	108333	19.941055546054	1.002
17	108829	19.961055546054	1.002
17	109024	19.981055546054	1.002
17	109226	20.001055546054	1.002
17	109236	20.021055546054	1.002
17	109246	20.041055546054	1.002
17	109731	20.061055546054	1.002
17	109926	20.081055546054	1.002
17	110128	20.101055546054	1.002
17	110138	20.121055546054	1.002
17	110148	20.141055546054	1.002
17	110633	20.161055546054	1.002
17	110828	20.181055546054	1.002
17	111030	20.201055546054	1.002
17	111040	20.221055546054	1.002
17	111050	20.241055546054	1.002
17	111551	20.261055546054	1.002
17	111746	20.281055546054	1.002
17	111948	20.301055546054	1.002
17	111958	20.321055546054	1.002
17	111968	20.341055546054	1.002
17	112464	20.361055546054	1.002
17	112659	20.381055546054	1.002
17	112861	20.401055546054	1.002
17	112871	20.421055546054	1.002
17	112881	20.441055546054	1.002
17	113393	20.461055546054	1.002
17	113588	20.481055546054	1.002
17	113790	20.501055546054	1.002
17	113800	20.521055546054	1.002
17	113810	20.541055546054	1.002
17	114306	20.561055546054	1.002
17	114501	20.581055546054	1.002
17	114703	20.601055546054	1.002
17	114713	20.621055546054	1.002
17	114723	20.641055546054	1.002
17	115219	20.661055546054	1.002
17	115414	20.681055546054	1.002
17	115616	20.701055546054	1.002
17	115626	20.721055546054	1.002
17	115636	20.741055546054	1.002
17	116148	20.761055546054	1.002
17	116343	20.781055546054	1.002
17	116545	20.801055546054	1.002
17	116555	20.821055546054	1.002
17	116565	20.841055546054	1.002
17	117088	20.861055546054	1.002
17	117283	20.881055546054	1.002
17	117485	20.901055546054	1.002
17	117495	20.921055546054	1.002
17	117505	20.941055546054	1.002
17	118028	20.961055546054	1.002
17	118223	20.981055546054	1.002
17	118425	21.001055546054	1.002
17	118435	21.021055546054	1.002
17	118445	21.041055546054	1.002
17	118930	21.061055546054	1.002
17	119125	21.081055546054	1.002
17	119327	21.101055546054	1.002
17	119337	21.121055546054	1.002
17	119347	21.141055546054	1.002
17	119837	21.161055546054	1.002
17	120032	21.181055546054	1.002
17	120234	21.201055546054	1.002
17	120244	21.221055546054	1.002
17	120254	21.241055546054	1.002
17	120739	21.261055546054	1.002
17	120934	21.281055546054	1.002
17	121136	21.301055546054	1.002
17	121146	21.321055546054	1.002
17	121156	21.341055546054	1.002
17	121625	21.361055546054	1.002
17	121820	21.381055546054	1.002
17	122022	21.401055546054	1.002
17	122032	21.421055546054	1.002
17	122042	21.441055546054	1.002
17	122554	21.461055546054	1.002
17	122749	21.481055546054	1.002
17	122951	21.501055546054	1.002
17	122961	21.521055546054	1.002
17	122971	21.541055546054	1.002
17	123467	21.561055546054	1.002
17	123662	21.581055546054	1.002
17	123864	21.601055546054	1.002
17	123874	21.621055546054	1.002
17	123884	21.641055546054	1.002
17	124391	21.661055546054	1.002
17	124586	21.681055546054	1.002
17	124788	21.701055546054	1.002
17	124798	21.721055546054	1.002
17	124808	21.741055546054	1.002
17	125320	21.761055546054	1.002
17	125515	21.781055546054	1.002
17	125717	21.801055546054	1.002
17	125727	21.821055546054	1.002
17	125737	21.841055546054	1.002
17	126249	21.861055546054	1.002
17	126444	21.881055546054	1.002
17	126646	21.901055546054	1.002
17	126656	21.921055546054	1.002
17	126666	21.941055546054	1.002
17	127146	21.961055546054	1.002
17	127341	21.981055546054	1.002
17	127543	22.001055546054	1.002
17	127553	22.021055546054	1.002
17	127563	22.041055546054	1.002
17	128048	22.061055546054	1.002
17	128243	22.081055546054	1.002
17	128445	22.101055546054	1.002
17	128455	22.121055546054	1.002
17	128465	22.141055546054	1.002
17	128961	22.161055546054	1.002
17	129156	22.181055546054	1.002
17	129358	22.201055546054	1.002
17	129368	22.221055546054	1.002
17	129378	22.241055546054	1.002
17	129863	22.261055546054	1.002
17	130058	22.281055546054	1.002
17	130260	22.301055546054	1.002
17	130270	22.321055546054	1.002
17	130280	22.341055546054	1.002
17	130765	22.361055546054	1.002
17	130960	22.381055546054	1.002
17	131162	22.401055546054	1.002
17	131172	22.421055546054	1.002
17	131182	22.441055546054	1.002
17	131678	22.461055546054	1.002
17	131873	22.481055546054	1.002
17	132075	22.501055546054	1.002
17	132085	22.521055546054	1.002
17	132095	22.541055546054	1.002
17	132580	22.561055546054	1.002
17	132775	22.581055546054	1.002
17	132977	22.601055546054	1.002
17	132987	22.621055546054	1.002
17	132997	22.641055546054	1.002
17	133477	22.661055546054	1.002
17	133672	22.681055546054	1.002
17	133874	22.701055546054	1.002
17	133884	22.721055546054	1.002
17	133894	22.741055546054	1.002
17	134406	22.761055546054	1.002
17	134601	22.781055546054	1.002
17	134803	22.801055546054	1.002
17	134813	22.821055546054	1.002
17	134823	22.841055546054	1.002
17	135335	22.861055546054	1.002
17	135530	22.881055546054	1.002
17	135732	22.901055546054	1.002
17	135742	22.921055546054	1.002
17	135752	22.941055546054	1.002
17	136248	22.961055546054	1.002
17	136443	22.981055546054	1.002
17	136645	23.001055546054	1.002
17	136655	23.021055546054	1.002
17	136665	23.041055546054	1.002
17	137172	23.061055546054	1.002
17	137367	23.081055546054	1.002
17	137569	23.101055546054	1.002
17	137579	23.121055546054	1.002
17	137589	23.141055546054	1.002
17	138079	23.161055546054	1.002
17	138274	23.181055546054	1.002
17	138476	23.201055546054	1.002
17	138486	23.221055546054	1.002
17	138496	23.241055546054	1.002
17	139013	23.261055546054	1.002
17	139208	23.281055546054	1.002
17	139410	23.301055546054	1.002
17	139420	23.321055546054	1.002
17	139430	23.341055546054	1.002
17	139931	23.361055546054	1.002
17	140126	23.381055546054	1.002
17	140328	23.401055546054	1.002
17	140338	23.421055546054	1.002
17	140348	23.441055546054	1.002
17	140855	23.461055546054	1.002
17	141050	23.481055546054	1.002
17	141252	23.501055546054	1.002
17	141262	23.521055546054	1.002
17	141272	23.541055546054	1.002
17	141768	23.561055546054	1.002
17	141963	23.581055546054	1.002
17	142165	23.601055546054	1.002
17	142175	23.621055546054	1.002
17	142185	23.641055546054	1.002
17	142692	23.661055546054	1.002
17	142887	23.681055546054	1.002
17	143089	23.701055546054	1.002
17	143099	23.721055546054	1.002
17	143109	23.741055546054	1.002
17	143589	23.761055546054	1.002
17	143784	23.781055546054	1.002
17	143986	23.801055546054	1.002
17	143996	23.821055546054	1.002
17	144006	23.841055546054	1.002
17	144518	23.861055546054	1.002
17	144713	23.881055546054	1.002
17	144915	23.901055546054	1.002
17	144925	23.921055546054	1.002
17	144935	23.941055546054	1.002
17	145447	23.961055546054	1.002
17	145642	23.981055546054	1.002
17	145844	24.001055546054	1.002
17	145854	24.021055546054	1.002
17	145864	24.041055546054	1.002
17	146354	24.061055546054	1.002
17	146549	24.081055546054	1.002
17	146751	24.101055546054	1.002
17	146761	24.121055546054	1.002
17	146771	24.141055546054	1.002
17	147250	24.161055546054	1.002
17	147445	24.181055546054	1.002
17	147647	24.201055546054	1.002
17	147657	24.221055546054	1.002
17	147667	24.241055546054	1.002
17	148163	24.261055546054	1.002
17	148358	24.281055546054	1.002
17	148560	24.301055546054	1.002
17	148570	24.321055546054	1.002
17	148580	24.341055546054	1.002
17	149081	24.361055546054	1.002
17	149276	24.381055546054	1.002
17	149478	24.401055546054	1.002
17	149488	24.421055546054	1.002
17	149498	24.441055546054	1.002
17	149988	24.461055546054	1.002
17	150183	24.481055546054	1.002
17	150385	24.501055546054	1.002
17	150395	24.521055546054	1.002
17	150405	24.541055546054	1.002
17	150890	24.561055546054	1.002
17	151085	24.581055546054	1.002
17	151287	24.601055546054	1.002
17	151297	24.621055546054	1.002
17	151307	24.641055546054	1.002
17	151813	24.661055546054	1.002
17	152008	24.681055546054	1.002
17	152210	24.701055546054	1.002
17	152220	24.721055546054	1.002
17	152230	24.741055546054	1.002
17	152720	24.761055546054	1.002
17	152915	24.781055546054	1.002
17	153117	24.801055546054	1.002
17	153127	24.821055546054	1.002
17	153137	24.841055546054	1.002
17	153638	24.861055546054	1.002
17	153833	24.881055546054	1.002
17	154035	24.901055546054	1.002
17	154045	24.921055546054	1.002
17	154055	24.941055546054	1.002
17	154540	24.961055546054	1.002
17	154735	24.981055546054	1.002
17	154937	25.001055546054	1.002
17	154947	25.021055546054	1.002
17	154957	25.041055546054	1.002
17	155453	25.061055546054	1.002
17	155648	25.081055546054	1.002
17	155850	25.101055546054	1.002
17	155860	25.121055546054	1.002
17	155870	25.141055546054	1.002
17	156355	25.161055546054	1.002
17	156550	25.181055546054	1.002
17	156752	25.201055546054	1.002
17	156762	25.221055546054	1.002
17	156772	25.241055546054	1.002
17	157246	25.261055546054	1.002
17	157441	25.281055546054	1.002
17	157643	25.301055546054	1.002
17	157653	25.321055546054	1.002
17	157663	25.341055546054	1.002
17	158137	25.361055546054	1.002
17	158332	25.381055546054	1.002
17	158534	25.401055546054	1.002
17	158544	25.421055546054	1.002
17	158554	25.441055546054	1.002
17	159055	25.461055546054	1.002
17	159250	25.481055546054	1.002
17	159452	25.501055546054	1.002
17	159462	25.521055546054	1.002
17	159472	25.541055546054	1.002
17	159968	25.561055546054	1.002
17	160163	25.581055546054	1.002
17	160365	25.601055546054	1.002
17	160375	25.621055546054	1.002
17	160385	25.641055546054	1.002
17	160897	25.661055546054	1.002
17	161092	25.681055546054	1.002
17	161294	25.701055546054	1.002
17	161304	25.721055546054	1.002
17	161314	25.741055546054	1.002
17	161810	25.761055546054	1.002
17	162005	25.781055546054	1.002
17	162207	25.801055546054	1.002
17	162217	25.821055546054	1.002
17	162227	25.841055546054	1.002
17	162723	25.861055546054	1.002
17	162918	25.881055546054	1.002
17	163120	25.901055546054	1.002
17	163130	25.921055546054	1.002
17	163140	25.941055546054	1.002
17	163668	25.961055546054	1.002
17	163863	25.981055546054	1.002
17	164065	26.001055546054	1.002
17	164075	26.021055546054	1.002
17	164085	26.041055546054	1.002
17	164586	26.061055546054	1.002
17	164781	26.081055546054	1.002
17	164983	26.101055546054	1.002
17	164993	26.121055546054	1.002
17	165003	26.141055546054	1.002
17	165504	26.161055546054	1.002
17	165699	26.181055546054	1.002
17	165901	26.201055546054	1.002
17	165911	26.221055546054	1.002
17	165921	26.241055546054	1.002
17	166417	26.261055546054	1.002
17	166612	26.281055546054	1.002
17	166814	26.301055546054	1.002
17	166824	26.321055546054	1.002
17	166834	26.341055546054	1.002
17	167362	26.361055546054	1.002
17	167557	26.381055546054	1.002
17	167759	26.401055546054	1.002
17	167769	26.421055546054	1.002
17	167779	26.441055546054	1.002
17	168259	26.461055546054	1.002
17	168454	26.481055546054	1.002
17	168656	26.501055546054	1.002
17	168666	26.521055546054	1.002
17	168676	26.541055546054	1.002
17	169166	26.561055546054	1.002
17	169361	26.581055546054	1.002
17	169563	26.601055546054	1.002
17	169573	26.621055546054	1.002
17	169583	26.641055546054	1.002
17	170063	26.661055546054	1.002
17	170258	26.681055546054	1.002
17	170460	26.701055546054	1.002
17	170470	26.721055546054	1.002
17	170480	26.741055546054	1.002
17	170992	26.761055546054	1.002
17	171187	26.781055546054	1.002
17	171389	26.801055546054	1.002
17	171399	26.821055546054	1.002
17	171409	26.841055546054	1.002
17	171937	26.861055546054	1.002
17	172132	26.881055546054	1.002
17	172334	26.901055546054	1.002
17	172344	26.921055546054	1.002
17	172354	26.941055546054	1.002
17	172850	26.961055546054	1.002
17	173045	26.981055546054	1.002
17	173247	27.001055546054	1.002
17	173257	27.021055546054	1.002
17	173267	27.041055546054	1.002
17	173768	27.061055546054	1.002
17	173963	27.081055546054	1.002
17	174165	27.101055546054	1.002
17	174175	27.121055546054	1.002
17	174185	27.141055546054	1.002
17	174670	27.161055546054	1.002
17	174865	27.181055546054	1.002
17	175067	27.201055546054	1.002
17	175077	27.221055546054	1.002
17	175087	27.241055546054	1.002
17	175583	27.261055546054	1.002
17	175778	27.281055546054	1.002
17	175980	27.301055546054	1.002
17	175990	27.321055546054	1.002
17	176000	27.341055546054	1.002
17	176485	27.361055546054	1.002
17	176680	27.381055546054	1.002
17	176882	27.401055546054	1.002
17	176892	27.421055546054	1.002
17	176902	27.441055546054	1.002
17	177387	27.461055546054	1.002
17	177582	27.481055546054	1.002
17	177784	27.501055546054	1.002
17	177794	27.521055546054	1.002
17	177804	27.541055546054	1.002
17	178305	27.561055546054	1.002
17	178500	27.581055546054	1.002
17	178702	27.601055546054	1.002
17	178712	27.621055546054	1.002
17	178722	27.641055546054	1.002
17	179207	27.661055546054	1.002
17	179402	27.681055546054	1.002
17	179604	27.701055546054	1.002
17	179614	27.721055546054	1.002
17	179624	27.741055546054	1.002
17	180109	27.761055546054	1.002
17	180304	27.781055546054	1.002
17	180506	27.801055546054	1.002
17	180516	27.821055546054	1.002
17	180526	27.841055546054	1.002
17	181022	27.861055546054	1.002
17	181217	27.881055546054	1.002
17	181419	27.901055546054	1.002
17	181429	27.921055546054	1.002
17	181439	27.941055546054	1.002
17	181935	27.961055546054	1.002
17	182130	27.981055546054	1.002
17	182332	28.001055546054	1.002
17	182342	28.021055546054	1.002
17	182352	28.041055546054	1.002
17	182848	28.061055546054	1.002
17	183043	28.081055546054	1.002
17	183245	28.101055546054	1.002
17	183255	28.121055546054	1.002
17	183265	28.141055546054	1.002
17	183755	28.161055546054	1.002
17	183950	28.181055546054	1.002
17	184152	28.201055546054	1.002
17	184162	28.221055546054	1.002
17	184172	28.241055546054	1.002
17	184651	28.261055546054	1.002
17	184846	28.281055546054	1.002
17	185048	28.301055546054	1.002
17	185058	28.321055546054	1.002
17	185068	28.341055546054	1.002
17	185559	28.361055546054	1.002
17	185754	28.381055546054	1.002
17	185956	28.401055546054	1.002
17	185966	28.421055546054	1.002
17	185976	28.441055546054	1.002
17	186477	28.461055546054	1.002
17	186672	28.481055546054	1.002
17	186874	28.501055546054	1.002
17	186884	28.521055546054	1.002
17	186894	28.541055546054	1.002
17	187406	28.561055546054	1.002
17	187601	28.581055546054	1.002
17	187803	28.601055546054	1.002
17	187813	28.621055546054	1.002
17	187823	28.641055546054	1.002
17	188313	28.661055546054	1.002
17	188508	28.681055546054	1.002
17	188710	28.701055546054	1.002
17	188720	28.721055546054	1.002
17	188730	28.741055546054	1.002
17	189237	28.761055546054	1.002
17	189432	28.781055546054	1.002
17	189634	28.801055546054	1.002
17	189644	28.821055546054	1.002
17	189654	28.841055546054	1.002
17	190161	28.861055546054	1.002
17	190356	28.881055546054	1.002
17	190558	28.901055546054	1.002
17	190568	28.921055546054	1.002
17	190578	28.941055546054	1.002
17	191063	28.961055546054	1.002
17	191258	28.981055546054	1.002
17	191460	29.001055546054	1.002
17	191470	29.021055546054	1.002
17	191480	29.041055546054	1.002
17	191981	29.061055546054	1.002
17	192176	29.081055546054	1.002
17	192378	29.101055546054	1.002
17	192388	29.121055546054	1.002
17	192398	29.141055546054	1.002
17	192894	29.161055546054	1.002
17	193089	29.181055546054	1.002
17	193291	29.201055546054	1.002
17	193301	29.221055546054	1.002
17	193311	29.241055546054	1.002
17	193823	29.261055546054	1.002
17	194018	29.281055546054	1.002
17	194220	29.301055546054	1.002
17	194230	29.321055546054	1.002
17	194240	29.341055546054	1.002
17	194725	29.361055546054	1.002
17	194920	29.381055546054	1.002
17	195122	29.401055546054	1.002
17	195132	29.421055546054	1.002
17	195142	29.441055546054	1.002
17	195633	29.461055546054	1.002
17	195828	29.481055546054	1.002
17	196030	29.501055546054	1.002
17	196040	29.521055546054	1.002
17	196050	29.541055546054	1.002
17	196557	29.561055546054	1.002
17	196752	29.581055546054	1.002
17	196954	29.601055546054	1.002
17	196964	29.621055546054	1.002
17	196974	29.641055546054	1.002
17	197475	29.661055546054	1.002
17	197670	29.681055546054	1.002
17	197872	29.701055546054	1.002
17	197882	29.721055546054	1.002
17	197892	29.741055546054	1.002
17	198377	29.761055546054	1.002
17	198572	29.781055546054	1.002
17	198774	29.801055546054	1.002
17	198784	29.821055546054	1.002
17	198794	29.841055546054	1.002
17	199284	29.861055546054	1.002
17	199479	29.881055546054	1.002
17	199681	29.901055546054	1.002
17	199691	29.921055546054	1.002
17	199701	29.941055546054	1.002
17	200213	29.961055546054	1.002
17	200408	29.981055546054	1.002
17	200610	30.001055546054	1.002
17	200620	30.021055546054	1.002
17	200630	30.041055546054	1.002
17	201121	30.061055546054	1.002
17	201316	30.081055546054	1.002
17	201518	30.101055546054	1.002
17	201528	30.121055546054	1.002
17	201538	30.141055546054	1.002
17	202045	30.161055546054	1.002
17	202240	30.181055546054	1.002
17	202442	30.201055546054	1.002
17	202452	30.221055546054	1.002
17	202462	30.241055546054	1.002
17	202968	30.261055546054	1.002
17	203163	30.281055546054	1.002
17	203365	30.301055546054	1.002
17	203375	30.321055546054	1.002
17	203385	30.341055546054	1.002
17	203865	30.361055546054	1.002
17	204060	30.381055546054	1.002
17	204262	30.401055546054	1.002
17	204272	30.421055546054	1.002
17	204282	30.441055546054	1.002
17	204783	30.461055546054	1.002
17	204978	30.481055546054	1.002
17	205180	30.501055546054	1.002
17	205190	30.521055546054	1.002
17	205200	30.541055546054	1.002
17	205680	30.561055546054	1.002
17	205875	30.581055546054	1.002
17	206077	30.601055546054	1.002
17	206087	30.621055546054	1.002
17	206097	30.641055546054	1.002
17	206572	30.661055546054	1.002
17	206767	30.681055546054	1.002
17	206969	30.701055546054	1.002
17	206979	30.721055546054	1.002
17	206989	30.741055546054	1.002
17	207458	30.761055546054	1.002
17	207653	30.781055546054	1.002
17	207855	30.801055546054	1.002
17	207865	30.821055546054	1.002
17	207875	30.841055546054	1.002
17	208366	30.861055546054	1.002
17	208561	30.881055546054	1.002
17	208763	30.901055546054	1.002
17	208773	30.921055546054	1.002
17	208783	30.941055546054	1.002
17	209274	30.961055546054	1.002
17	209469	30.981055546054	1.002
17	209671	31.001055546054	1.002
17	209681	31.021055546054	1.002
17	209691	31.041055546054	1.002
17	210192	31.061055546054	1.002
17	210387	31.081055546054	1.002
17	210589	31.101055546054	1.002
17	210599	31.121055546054	1.002
17	210609	31.141055546054	1.002
17	211121	31.161055546054	1.002
17	211316	31.181055546054	1.002
17	211518	31.201055546054	1.002
17	211528	31.221055546054	1.002
17	211538	31.241055546054	1.002
17	212044	31.261055546054	1.002
17	212239	31.281055546054	1.002
17	212441	31.301055546054	1.002
17	212451	31.321055546054	1.002
17	212461	31.341055546054	1.002
17	212930	31.361055546054	1.002
17	213125	31.381055546054	1.002
17	213327	31.401055546054	1.002
17	213337	31.421055546054	1.002
17	213347	31.441055546054	1.002
17	213832	31.461055546054	1.002
17	214027	31.481055546054	1.002
17	214229	31.501055546054	1.002
17	214239	31.521055546054	1.002
17	214249	31.541055546054	1.002
17	214734	31.561055546054	1.002
17	214929	31.581055546054	1.002
17	215131	31.601055546054	1.002
17	215141	31.621055546054	1.002
17	215151	31.641055546054	1.002
17	215636	31.661055546054	1.002
17	215831	31.681055546054	1.002
17	216033	31.701055546054	1.002
17	216043	31.721055546054	1.002
17	216053	31.741055546054	1.002
17	216538	31.761055546054	1.002
17	216733	31.781055546054	1.002
17	216935	31.801055546054	1.002
17	216945	31.821055546054	1.002
17	216955	31.841055546054	1.002
17	217445	31.861055546054	1.002
17	217640	31.881055546054	1.002
17	217842	31.901055546054	1.002
17	217852	31.921055546054	1.002
17	217862	31.941055546054	1.002
17	218374	31.961055546054	1.002
17	218569	31.981055546054	1.002
17	218771	32.001055546054	1.002
17	218781	32.021055546054	1.002
17	218791	32.041055546054	1.002
17	219281	32.061055546054	1.002
17	219476	32.081055546054	1.002
17	219678	32.101055546054	1.002
17	219688	32.121055546054	1.002
17	219698	32.141055546054	1.002
17	220189	32.161055546054	1.002
17	220384	32.181055546054	1.002
17	220586	32.201055546054	1.002
17	220596	32.221055546054	1.002
17	220606	32.241055546054	1.002
17	221118	32.261055546054	1.002
17	221313	32.281055546054	1.002
17	221515	32.301055546054	1.002
17	221525	32.321055546054	1.002
17	221535	32.341055546054	1.002
17	222004	32.361055546054	1.002
17	222199	32.381055546054	1.002
17	222401	32.401055546054	1.002
17	222411	32.421055546054	1.002
17	222421	32.441055546054	1.002
17	222922	32.461055546054	1.002
17	223117	32.481055546054	1.002
17	223319	32.501055546054	1.002
17	223329	32.521055546054	1.002
17	223339	32.541055546054	1.002
17	223824	32.561055546054	1.002
17	224019	32.581055546054	1.002
17	224221	32.601055546054	1.002
17	224231	32.621055546054	1.002
17	224241	32.641055546054	1.002
17	224737	32.661055546054	1.002
17	224932	32.681055546054	1.002
17	225134	32.701055546054	1.002
17	225144	32.721055546054	1.002
17	225154	32.741055546054	1.002
17	225639	32.761055546054	1.002
17	225834	32.781055546054	1.002
17	226036	32.801055546054	1.002
17	226046	32.821055546054	1.002
17	226056	32.841055546054	1.002
17	226563	32.861055546054	1.002
17	226758	32.881055546054	1.002
17	226960	32.901055546054	1.002
17	226970	32.921055546054	1.002
17	226980	32.941055546054	1.002
17	227470	32.961055546054	1.002
17	227665	32.981055546054	1.002
17	227867	33.001055546054	1.002
17	227877	33.021055546054	1.002
17	227887	33.041055546054	1.002
17	228388	33.061055546054	1.002
17	228583	33.081055546054	1.002
17	228785	33.101055546054	1.002
17	228795	33.121055546054	1.002
17	228805	33.141055546054	1.002
17	229301	33.161055546054	1.002
17	229496	33.181055546054	1.002
17	229698	33.201055546054	1.002
17	229708	33.221055546054	1.002
17	229718	33.241055546054	1.002
17	230203	33.261055546054	1.002
17	230398	33.281055546054	1.002
17	230600	33.301055546054	1.002
17	230610	33.321055546054	1.002
17	230620	33.341055546054	1.002
17	231089	33.361055546054	1.002
17	231284	33.381055546054	1.002
17	231486	33.401055546054	1.002
17	231496	33.421055546054	1.002
17	231506	33.441055546054	1.002
17	232002	33.461055546054	1.002
17	232197	33.481055546054	1.002
17	232399	33.501055546054	1.002
17	232409	33.521055546054	1.002
17	232419	33.541055546054	1.002
17	232931	33.561055546054	1.002
17	233126	33.581055546054	1.002
17	233328	33.601055546054	1.002
17	233338	33.621055546054	1.002
17	233348	33.641055546054	1.002
17	233844	33.661055546054	1.002
17	234039	33.681055546054	1.002
17	234241	33.701055546054	1.002
17	234251	33.721055546054	1.002
17	234261	33.741055546054	1.002
17	234756	33.761055546054	1.002
17	234951	33.781055546054	1.002
17	235153	33.801055546054	1.002
17	235163	33.821055546054	1.002
17	235173	33.841055546054	1.002
17	235652	33.861055546054	1.002
17	235847	33.881055546054	1.002
17	236049	33.901055546054	1.002
17	236059	33.921055546054	1.002
17	236069	33.941055546054	1.002
17	236564	33.961055546054	1.002
17	236759	33.981055546054	1.002
17	236961	34.001055546054	1.002
17	236971	34.021055546054	1.002
17	236981	34.041055546054	1.002
17	237520	34.061055546054	1.002
17	237715	34.081055546054	1.002
17	237917	34.101055546054	1.002
17	237927	34.121055546054	1.002
17	237937	34.141055546054	1.002
17	238433	34.161055546054	1.002
17	238628	34.181055546054	1.002
17	238830	34.201055546054	1.002
17	238840	34.221055546054	1.002
17	238850	34.241055546054	1.002
17	239346	34.261055546054	1.002
17	239541	34.281055546054	1.002
17	239743	34.301055546054	1.002
17	239753	34.321055546054	1.002
17	239763	34.341055546054	1.002
17	240253	34.361055546054	1.002
17	240448	34.381055546054	1.002
17	240650	34.401055546054	1.002
17	240660	34.421055546054	1.002
17	240670	34.441055546054	1.002
17	241144	34.461055546054	1.002
17	241339	34.481055546054	1.002
17	241541	34.501055546054	1.002
17	241551	34.521055546054	1.002
17	241561	34.541055546054	1.002
17	242062	34.561055546054	1.002
17	242257	34.581055546054	1.002
17	242459	34.601055546054	1.002
17	242469	34.621055546054	1.002
17	242479	34.641055546054	1.002
17	242980	34.661055546054	1.002
17	243175	34.681055546054	1.002
17	243377	34.701055546054	1.002
17	243387	34.721055546054	1.002
17	243397	34.741055546054	1.002
17	243882	34.761055546054	1.002
17	244077	34.781055546054	1.002
17	244279	34.801055546054	1.002
17	244289	34.821055546054	1.002
17	244299	34.841055546054	1.002
17	244827	34.861055546054	1.002
17	245022	34.881055546054	1.002
17	245224	34.901055546054	1.002
17	245234	34.921055546054	1.002
17	245244	34.941055546054	1.002
17	245772	34.961055546054	1.002
17	245967	34.981055546054	1.002
17	246169	35.001055546054	1.002
17	246179	35.021055546054	1.002
17	246189	35.041055546054	1.002
17	246696	35.061055546054	1.002
17	246891	35.081055546054	1.002
17	247093	35.101055546054	1.002
17	247103	35.121055546054	1.002
17	247113	35.141055546054	1.002
17	247609	35.161055546054	1.002
17	247804	35.181055546054	1.002
17	248006	35.201055546054	1.002
17	248016	35.221055546054	1.002
17	248026	35.241055546054	1.002
17	248500	35.261055546054	1.002
17	248695	35.281055546054	1.002
17	248897	35.301055546054	1.002
17	248907	35.321055546054	1.002
17	248917	35.341055546054	1.002
17	249418	35.361055546054	1.002
17	249613	35.381055546054	1.002
17	249815	35.401055546054	1.002
17	249825	35.421055546054	1.002
17	249835	35.441055546054	1.002
17	250352	35.461055546054	1.002
17	250547	35.481055546054	1.002
17	250749	35.501055546054	1.002
17	250759	35.521055546054	1.002
17	250769	35.541055546054	1.002
17	251281	35.561055546054	1.002
17	251476	35.581055546054	1.002
17	251678	35.601055546054	1.002
17	251688	35.621055546054	1.002
17	251698	35.641055546054	1.002
17	252194	35.661055546054	1.002
17	252389	35.681055546054	1.002
17	252591	35.701055546054	1.002
17	252601	35.721055546054	1.002
17	252611	35.741055546054	1.002
17	253112	35.761055546054	1.002
17	253307	35.781055546054	1.002
17	253509	35.801055546054	1.002
17	253519	35.821055546054	1.002
17	253529	35.841055546054	1.002
17	254030	35.861055546054	1.002
17	254225	35.881055546054	1.002
17	254427	35.901055546054	1.002
17	254437	35.921055546054	1.002
17	254447	35.941055546054	1.002
17	254937	35.961055546054	1.002
17	255132	35.981055546054	1.002
17	255334	36.001055546054	1.002
17	255344	36.021055546054	1.002
17	255354	36.041055546054	1.002
17	255866	36.061055546054	1.002
17	256061	36.081055546054	1.002
17	256263	36.101055546054	1.002
17	256273	36.121055546054	1.002
17	256283	36.141055546054	1.002
17	256806	36.161055546054	1.002
17	257001	36.181055546054	1.002
17	257203	36.201055546054	1.002
17	257213	36.221055546054	1.002
17	257223	36.241055546054	1.002
17	257708	36.261055546054	1.002
17	257903	36.281055546054	1.002
17	258105	36.301055546054	1.002
17	258115	36.321055546054	1.002
17	258125	36.341055546054	1.002
17	258637	36.361055546054	1.002
17	258832	36.381055546054	1.002
17	259034	36.401055546054	1.002
17	259044	36.421055546054	1.002
17	259054	36.441055546054	1.002
17	259534	36.461055546054	1.002
17	259729	36.481055546054	1.002
17	259931	36.501055546054	1.002
17	259941	36.521055546054	1.002
17	259951	36.541055546054	1.002
17	260452	36.561055546054	1.002
17	260647	36.581055546054	1.002
17	260849	36.601055546054	1.002
17	260859	36.621055546054	1.002
17	260869	36.641055546054	1.002
17	261381	36.661055546054	1.002
17	261576	36.681055546054	1.002
17	261778	36.701055546054	1.002
17	261788	36.721055546054	1.002
17	261798	36.741055546054	1.002
17	262288	36.761055546054	1.002
17	262483	36.781055546054	1.002
17	262685	36.801055546054	1.002
17	262695	36.821055546054	1.002
17	262705	36.841055546054	1.002
17	263206	36.861055546054	1.002
17	263401	36.881055546054	1.002
17	263603	36.901055546054	1.002
17	263613	36.921055546054	1.002
17	263623	36.941055546054	1.002
17	264119	36.961055546054	1.002
17	264314	36.981055546054	1.002
17	264516	37.001055546054	1.002
17	264526	37.021055546054	1.002
17	264536	37.041055546054	1.002
17	265032	37.061055546054	1.002
17	265227	37.081055546054	1.002
17	265429	37.101055546054	1.002
17	265439	37.121055546054	1.002
17	265449	37.141055546054	1.002
17	265961	37.161055546054	1.002
17	266156	37.181055546054	1.002
17	266358	37.201055546054	1.002
17	266368	37.221055546054	1.002
17	266378	37.241055546054	1.002
17	266868	37.261055546054	1.002
17	267063	37.281055546054	1.002
17	267265	37.301055546054	1.002
17	267275	37.321055546054	1.002
17	267285	37.341055546054	1.002
17	267781	37.361055546054	1.002
17	267976	37.381055546054	1.002
17	268178	37.401055546054	1.002
17	268188	37.421055546054	1.002
17	268198	37.441055546054	1.002
17	268705	37.461055546054	1.002
17	268900	37.481055546054	1.002
17	269102	37.501055546054	1.002
17	269112	37.521055546054	1.002
17	269122	37.541055546054	1.002
17	269639	37.561055546054	1.002
17	269834	37.581055546054	1.002
17	270036	37.601055546054	1.002
17	270046	37.621055546054	1.002
17	270056	37.641055546054	1.002
17	270546	37.661055546054	1.002
17	270741	37.681055546054	1.002
17	270943	37.701055546054	1.002
17	270953	37.721055546054	1.002
17	270963	37.741055546054	1.002
17	271464	37.761055546054	1.002
17	271659	37.781055546054	1.002
17	271861	37.801055546054	1.002
17	271871	37.821055546054	1.002
17	271881	37.841055546054	1.002
17	272356	37.861055546054	1.002
17	272551	37.881055546054	1.002
17	272753	37.901055546054	1.002
17	272763	37.921055546054	1.002
17	272773	37.941055546054	1.002
17	273274	37.961055546054	1.002
17	273469	37.981055546054	1.002
17	273671	38.001055546054	1.002
17	273681	38.021055546054	1.002
17	273691	38.041055546054	1.002
17	274187	38.061055546054	1.002
17	274382	38.081055546054	1.002
17	274584	38.101055546054	1.002
17	274594	38.121055546054	1.002
17	274604	38.141055546054	1.002
17	275105	38.161055546054	1.002
17	275300	38.181055546054	1.002
17	275502	38.201055546054	1.002
17	275512	38.221055546054	1.002
17	275522	38.241055546054	1.002
17	276034	38.261055546054	1.002
17	276229	38.281055546054	1.002
17	276431	38.301055546054	1.002
17	276441	38.321055546054	1.002
17	276451	38.341055546054	1.002
17	276941	38.361055546054	1.002
17	277136	38.381055546054	1.002
17	277338	38.401055546054	1.002
17	277348	38.421055546054	1.002
17	277358	38.441055546054	1.002
17	277832	38.461055546054	1.002
17	278027	38.481055546054	1.002
17	278229	38.501055546054	1.002
17	278239	38.521055546054	1.002
17	278249	38.541055546054	1.002
17	278745	38.561055546054	1.002
17	278940	38.581055546054	1.002
17	279142	38.601055546054	1.002
17	279152	38.621055546054	1.002
17	279162	38.641055546054	1.002
17	279658	38.661055546054	1.002
17	279853	38.681055546054	1.002
17	280055	38.701055546054	1.002
17	280065	38.721055546054	1.002
17	280075	38.741055546054	1.002
17	280565	38.761055546054	1.002
17	280760	38.781055546054	1.002
17	280962	38.801055546054	1.002
17	280972	38.821055546054	1.002
17	280982	38.841055546054	1.002
17	281467	38.861055546054	1.002
17	281662	38.881055546054	1.002
17	281864	38.901055546054	1.002
17	281874	38.921055546054	1.002
17	281884	38.941055546054	1.002
17	282390	38.961055546054	1.002
17	282585	38.981055546054	1.002
17	282787	39.001055546054	1.002
17	282797	39.021055546054	1.002
17	282807	39.041055546054	1.002
17	283308	39.061055546054	1.002
17	283503	39.081055546054	1.002
17	283705	39.101055546054	1.002
17	283715	39.121055546054	1.002
17	283725	39.141055546054	1.002
17	284226	39.161055546054	1.002
17	284421	39.181055546054	1.002
17	284623	39.201055546054	1.002
17	284633	39.221055546054	1.002
17	284643	39.241055546054	1.002
17	285139	39.261055546054	1.002
17	285334	39.281055546054	1.002
17	285536	39.301055546054	1.002
17	285546	39.321055546054	1.002
17	285556	39.341055546054	1.002
17	286041	39.361055546054	1.002
17	286236	39.381055546054	1.002
17	286438	39.401055546054	1.002
17	286448	39.421055546054	1.002
17	286458	39.441055546054	1.002
17	286964	39.461055546054	1.002
17	287159	39.481055546054	1.002
17	287361	39.501055546054	1.002
17	287371	39.521055546054	1.002
17	287381	39.541055546054	1.002
17	287871	39.561055546054	1.002
17	288066	39.581055546054	1.002
17	288268	39.601055546054	1.002
17	288278	39.621055546054	1.002
17	288288	39.641055546054	1.002
17	288816	39.661055546054	1.002
17	289011	39.681055546054	1.002
17	289213	39.701055546054	1.002
17	289223	39.721055546054	1.002
17	289233	39.741055546054	1.002
17	289729	39.761055546054	1.002
17	289924	39.781055546054	1.002
17	290126	39.801055546054	1.002
17	290136	39.821055546054	1.002
17	290146	39.841055546054	1.002
17	290620	39.861055546054	1.002
17	290815	39.881055546054	1.002
17	291017	39.901055546054	1.002
17	291027	39.921055546054	1.002
17	291037	39.941055546054	1.002
17	291549	39.961055546054	1.002
17	291744	39.981055546054	1.002
17	291946	40.001055546054	1.002
17	291956	40.021055546054	1.002
17	291966	40.041055546054	1.002
17	292462	40.061055546054	1.002
17	292657	40.081055546054	1.002
17	292859	40.101055546054	1.002
17	292869	40.121055546054	1.002
17	292879	40.141055546054	1.002
17	293353	40.161055546054	1.002
17	293548	40.181055546054	1.002
17	293750	40.201055546054	1.002
17	293760	40.221055546054	1.002
17	293770	40.241055546054	1.002
17	294276	40.261055546054	1.002
17	294471	40.281055546054	1.002
17	294673	40.301055546054	1.002
17	294683	40.321055546054	1.002
17	294693	40.341055546054	1.002
17	295189	40.361055546054	1.002
17	295384	40.381055546054	1.002
17	295586	40.401055546054	1.002
17	295596	40.421055546054	1.002
17	295606	40.441055546054	1.002
17	296107	40.461055546054	1.002
17	296302	40.481055546054	1.002
17	296504	40.501055546054	1.002
17	296514	40.521055546054	1.002
17	296524	40.541055546054	1.002
17	297003	40.561055546054	1.002
17	297198	40.581055546054	1.002
17	297400	40.601055546054	1.002
17	297410	40.621055546054	1.002
17	297420	40.641055546054	1.002
17	297916	40.661055546054	1.002
17	298111	40.681055546054	1.002
17	298313	40.701055546054	1.002
17	298323	40.721055546054	1.002
17	298333	40.741055546054	1.002
17	298829	40.761055546054	1.002
17	299024	40.781055546054	1.002
17	299226	40.801055546054	1.002
17	299236	40.821055546054	1.002
17	299246	40.841055546054	1.002
17	299758	40.861055546054	1.002
17	299953	40.881055546054	1.002
17	300155	40.901055546054	1.002
17	300165	40.921055546054	1.002
17	300175	40.941055546054	1.002
17	300671	40.961055546054	1.002
17	300866	40.981055546054	1.002
17	301068	41.001055546054	1.002
17	301078	41.021055546054	1.002
17	301088	41.041055546054	1.002
17	301584	41.061055546054	1.002
17	301779	41.081055546054	1.002
17	301981	41.101055546054	1.002
17	301991	41.121055546054	1.002
17	302001	41.141055546054	1.002
17	302507	41.161055546054	1.002
17	302702	41.181055546054	1.002
17	302904	41.201055546054	1.002
17	302914	41.221055546054	1.002
17	302924	41.241055546054	1.002
17	303420	41.261055546054	1.002
17	303615	41.281055546054	1.002
17	303817	41.301055546054	1.002
17	303827	41.321055546054	1.002
17	303837	41.341055546054	1.002
17	304327	41.361055546054	1.002
17	304522	41.381055546054	1.002
17	304724	41.401055546054	1.002
17	304734	41.421055546054	1.002
17	304744	41.441055546054	1.002
17	305245	41.461055546054	1.002
17	305440	41.481055546054	1.002
17	305642	41.501055546054	1.002
17	305652	41.521055546054	1.002
17	305662	41.541055546054	1.002
17	306147	41.561055546054	1.002
17	306342	41.581055546054	1.002
17	306544	41.601055546054	1.002
17	306554	41.621055546054	1.002
17	306564	41.641055546054	1.002
17	307065	41.661055546054	1.002
17	307260	41.681055546054	1.002
17	307462	41.701055546054	1.002
17	307472	41.721055546054	1.002
17	307482	41.741055546054	1.002
17	307994	41.761055546054	1.002
17	308189	41.781055546054	1.002
17	308391	41.801055546054	1.002
17	308401	41.821055546054	1.002
17	308411	41.841055546054	1.002
17	308896	41.861055546054	1.002
17	309091	41.881055546054	1.002
17	309293	41.901055546054	1.002
17	309303	41.921055546054	1.002
17	309313	41.941055546054	1.002
17	309798	41.961055546054	1.002
17	309993	41.981055546054	1.002
17	310195	42.001055546054	1.002
17	310205	42.021055546054	1.002
17	310215	42.041055546054	1.002
17	310684	42.061055546054	1.002
17	310879	42.081055546054	1.002
17	311081	42.101055546054	1.002
17	311091	42.121055546054	1.002
17	311101	42.141055546054	1.002
17	311586	42.161055546054	1.002
17	311781	42.181055546054	1.002
17	311983	42.201055546054	1.002
17	311993	42.221055546054	1.002
17	312003	42.241055546054	1.002
17	312499	42.261055546054	1.002
17	312694	42.281055546054	1.002
17	312896	42.301055546054	1.002
17	312906	42.321055546054	1.002
17	312916	42.341055546054	1.002
17	313439	42.361055546054	1.002
17	313634	42.381055546054	1.002
17	313836	42.401055546054	1.002
17	313846	42.421055546054	1.002
17	313856	42.441055546054	1.002
17	314352	42.461055546054	1.002
17	314547	42.481055546054	1.002
17	314749	42.501055546054	1.002
17	314759	42.521055546054	1.002
17	314769	42.541055546054	1.002
17	315276	42.561055546054	1.002
17	315471	42.581055546054	1.002
17	315673	42.601055546054	1.002
17	315683	42.621055546054	1.002
17	315693	42.641055546054	1.002
17	316178	42.661055546054	1.002
17	316373	42.681055546054	1.002
17	316575	42.701055546054	1.002
17	316585	42.721055546054	1.002
17	316595	42.741055546054	1.002
17	317091	42.761055546054	1.002
17	317286	42.781055546054	1.002
17	317488	42.801055546054	1.002
17	317498	42.821055546054	1.002
17	317508	42.841055546054	1.002
17	317988	42.861055546054	1.002
17	318183	42.881055546054	1.002
17	318385	42.901055546054	1.002
17	318395	42.921055546054	1.002
17	318405	42.941055546054	1.002
17	318901	42.961055546054	1.002
17	319096	42.981055546054	1.002
17	319298	43.001055546054	1.002
17	319308	43.021055546054	1.002
17	319318	43.041055546054	1.002
17	319809	43.061055546054	1.002
17	320004	43.081055546054	1.002
17	320206	43.101055546054	1.002
17	320216	43.121055546054	1.002
17	320226	43.141055546054	1.002
17	320711	43.161055546054	1.002
17	320906	43.181055546054	1.002
17	321108	43.201055546054	1.002
17	321118	43.221055546054	1.002
17	321128	43.241055546054	1.002
17	321624	43.261055546054	1.002
17	321819	43.281055546054	1.002
17	322021	43.301055546054	1.002
17	322031	43.321055546054	1.002
17	322041	43.341055546054	1.002
17	322542	43.361055546054	1.002
17	322737	43.381055546054	1.002
17	322939	43.401055546054	1.002
17	322949	43.421055546054	1.002
17	322959	43.441055546054	1.002
17	323449	43.461055546054	1.002
17	323644	43.481055546054	1.002
17	323846	43.501055546054	1.002
17	323856	43.521055546054	1.002
17	323866	43.541055546054	1.002
17	324356	43.561055546054	1.002
17	324551	43.581055546054	1.002
17	324753	43.601055546054	1.002
17	324763	43.621055546054	1.002
17	324773	43.641055546054	1.002
17	325274	43.661055546054	1.002
17	325469	43.681055546054	1.002
17	325671	43.701055546054	1.002
17	325681	43.721055546054	1.002
17	325691	43.741055546054	1.002
17	326214	43.761055546054	1.002
17	326409	43.781055546054	1.002
17	326611	43.801055546054	1.002
17	326621	43.821055546054	1.002
17	326631	43.841055546054	1.002
17	327127	43.861055546054	1.002
17	327322	43.881055546054	1.002
17	327524	43.901055546054	1.002
17	327534	43.921055546054	1.002
17	327544	43.941055546054	1.002
17	328056	43.961055546054	1.002
17	328251	43.981055546054	1.002
17	328453	44.001055546054	1.002
17	328463	44.021055546054	1.002
17	328473	44.041055546054	1.002
17	328969	44.061055546054	1.002
17	329164	44.081055546054	1.002
17	329366	44.101055546054	1.002
17	329376	44.121055546054	1.002
17	329386	44.141055546054	1.002
17	329882	44.161055546054	1.002
17	330077	44.181055546054	1.002
17	330279	44.201055546054	1.002
17	330289	44.221055546054	1.002
17	330299	44.241055546054	1.002
17	330778	44.261055546054	1.002
17	330973	44.281055546054	1.002
17	331175	44.301055546054	1.002
17	331185	44.321055546054	1.002
17	331195	44.341055546054	1.002
17	331691	44.361055546054	1.002
17	331886	44.381055546054	1.002
17	332088	44.401055546054	1.002
17	332098	44.421055546054	1.002
17	332108	44.441055546054	1.002
17	332620	44.461055546054	1.002
17	332815	44.481055546054	1.002
17	333017	44.501055546054	1.002
17	333027	44.521055546054	1.002
17	333037	44.541055546054	1.002
17	333538	44.561055546054	1.002
17	333733	44.581055546054	1.002
17	333935	44.601055546054	1.002
17	333945	44.621055546054	1.002
17	333955	44.641055546054	1.002
17	334451	44.661055546054	1.002
17	334646	44.681055546054	1.002
17	334848	44.701055546054	1.002
17	334858	44.721055546054	1.002
17	334868	44.741055546054	1.002
17	335353	44.761055546054	1.002
17	335548	44.781055546054	1.002
17	335750	44.801055546054	1.002
17	335760	44.821055546054	1.002
17	335770	44.841055546054	1.002
17	336250	44.861055546054	1.002
17	336445	44.881055546054	1.002
17	336647	44.901055546054	1.002
17	336657	44.921055546054	1.002
17	336667	44.941055546054	1.002
17	337163	44.961055546054	1.002
17	337358	44.981055546054	1.002
17	337560	45.001055546054	1.002
17	337570	45.021055546054	1.002
17	337580	45.041055546054	1.002
17	338060	45.061055546054	1.002
17	338255	45.081055546054	1.002
17	338457	45.101055546054	1.002
17	338467	45.121055546054	1.002
17	338477	45.141055546054	1.002
17	338956	45.161055546054	1.002
17	339151	45.181055546054	1.002
17	339353	45.201055546054	1.002
17	339363	45.221055546054	1.002
17	339373	45.241055546054	1.002
17	339864	45.261055546054	1.002
17	340059	45.281055546054	1.002
17	340261	45.301055546054	1.002
17	340271	45.321055546054	1.002
17	340281	45.341055546054	1.002
17	340766	45.361055546054	1.002
17	340961	45.381055546054	1.002
17	341163	45.401055546054	1.002
17	341173	45.421055546054	1.002
17	341183	45.441055546054	1.002
17	341679	45.461055546054	1.002
17	341874	45.481055546054	1.002
17	342076	45.501055546054	1.002
17	342086	45.521055546054	1.002
17	342096	45.541055546054	1.002
17	342603	45.561055546054	1.002
17	342798	45.581055546054	1.002
17	343000	45.601055546054	1.002
17	343010	45.621055546054	1.002
17	343020	45.641055546054	1.002
17	343516	45.661055546054	1.002
17	343711	45.681055546054	1.002
17	343913	45.701055546054	1.002
17	343923	45.721055546054	1.002
17	343933	45.741055546054	1.002
17	344413	45.761055546054	1.002
17	344608	45.781055546054	1.002
17	344810	45.801055546054	1.002
17	344820	45.821055546054	1.002
17	344830	45.841055546054	1.002
17	345315	45.861055546054	1.002
17	345510	45.881055546054	1.002
17	345712	45.901055546054	1.002
17	345722	45.921055546054	1.002
17	345732	45.941055546054	1.002
17	346228	45.961055546054	1.002
17	346423	45.981055546054	1.002
17	346625	46.001055546054	1.002
17	346635	46.021055546054	1.002
17	346645	46.041055546054	1.002
17	347152	46.061055546054	1.002
17	347347	46.081055546054	1.002
17	347549	46.101055546054	1.002
17	347559	46.121055546054	1.002
17	347569	46.141055546054	1.002
17	348065	46.161055546054	1.002
17	348260	46.181055546054	1.002
17	348462	46.201055546054	1.002
17	348472	46.221055546054	1.002
17	348482	46.241055546054	1.002
17	348978	46.261055546054	1.002
17	349173	46.281055546054	1.002
17	349375	46.301055546054	1.002
17	349385	46.321055546054	1.002
17	349395	46.341055546054	1.002
17	349880	46.361055546054	1.002
17	350075	46.381055546054	1.002
17	350277	46.401055546054	1.002
17	350287	46.421055546054	1.002
17	350297	46.441055546054	1.002
17	350793	46.461055546054	1.002
17	350988	46.481055546054	1.002
17	351190	46.501055546054	1.002
17	351200	46.521055546054	1.002
17	351210	46.541055546054	1.002
17	351711	46.561055546054	1.002
17	351906	46.581055546054	1.002
17	352108	46.601055546054	1.002
17	352118	46.621055546054	1.002
17	352128	46.641055546054	1.002
17	352624	46.661055546054	1.002
17	352819	46.681055546054	1.002
17	353021	46.701055546054	1.002
17	353031	46.721055546054	1.002
17	353041	46.741055546054	1.002
17	353531	46.761055546054	1.002
17	353726	46.781055546054	1.002
17	353928	46.801055546054	1.002
17	353938	46.821055546054	1.002
17	353948	46.841055546054	1.002
17	354428	46.861055546054	1.002
17	354623	46.881055546054	1.002
17	354825	46.901055546054	1.002
17	354835	46.921055546054	1.002
17	354845	46.941055546054	1.002
17	355325	46.961055546054	1.002
17	355520	46.981055546054	1.002
17	355722	47.001055546054	1.002
17	355732	47.021055546054	1.002
17	355742	47.041055546054	1.002
17	356227	47.061055546054	1.002
17	356422	47.081055546054	1.002
17	356624	47.101055546054	1.002
17	356634	47.121055546054	1.002
17	356644	47.141055546054	1.002
17	357129	47.161055546054	1.002
17	357324	47.181055546054	1.002
17	357526	47.201055546054	1.002
17	357536	47.221055546054	1.002
17	357546	47.241055546054	1.002
17	358026	47.261055546054	1.002
17	358221	47.281055546054	1.002
17	358423	47.301055546054	1.002
17	358433	47.321055546054	1.002
17	358443	47.341055546054	1.002
17	358950	47.361055546054	1.002
17	359145	47.381055546054	1.002
17	359347	47.401055546054	1.002
17	359357	47.421055546054	1.002
[...]
14	325696	43.75014973911	0.001
14	326605	43.80014973911	0.002
14	326636	43.85014973911	0.001
14	327518	43.90014973911	0.002
14	327549	43.95014973911	0.001
14	328447	44.00014973911	0.002
14	328478	44.05014973911	0.001
14	329360	44.10014973911	0.002
14	329391	44.15014973911	0.001
14	330273	44.20014973911	0.002
14	330304	44.25014973911	0.001
14	331169	44.30014973911	0.002
14	331200	44.35014973911	0.001
14	332082	44.40014973911	0.002
14	332113	44.45014973911	0.001
14	333011	44.50014973911	0.002
14	333042	44.55014973911	0.001
14	333929	44.60014973911	0.002
14	333960	44.65014973911	0.001
14	334842	44.70014973911	0.002
14	334873	44.75014973911	0.001
14	335744	44.80014973911	0.002
14	335775	44.85014973911	0.001
14	336641	44.90014973911	0.002
14	336672	44.95014973911	0.001
14	337554	45.00014973911	0.002
14	337585	45.05014973911	0.001
14	338451	45.10014973911	0.002
14	338482	45.15014973911	0.001
14	339347	45.20014973911	0.002
14	339378	45.25014973911	0.001
14	340255	45.30014973911	0.002
14	340286	45.35014973911	0.001
14	341157	45.40014973911	0.002
14	341188	45.45014973911	0.001
14	342070	45.50014973911	0.002
14	342101	45.55014973911	0.001
14	342994	45.60014973911	0.002
14	343025	45.65014973911	0.001
14	343907	45.70014973911	0.002
14	343938	45.75014973911	0.001
14	344804	45.80014973911	0.002
14	344835	45.85014973911	0.001
14	345706	45.90014973911	0.002
14	345737	45.95014973911	0.001
14	346619	46.00014973911	0.002
14	346650	46.05014973911	0.001
14	347543	46.10014973911	0.002
14	347574	46.15014973911	0.001
14	348456	46.20014973911	0.002
14	348487	46.25014973911	0.001
14	349369	46.30014973911	0.002
14	349400	46.35014973911	0.001
14	350271	46.40014973911	0.002
14	350302	46.45014973911	0.001
14	351184	46.50014973911	0.002
14	351215	46.55014973911	0.001
14	352102	46.60014973911	0.002
14	352133	46.65014973911	0.001
14	353015	46.70014973911	0.002
14	353046	46.75014973911	0.001
14	353922	46.80014973911	0.002
14	353953	46.85014973911	0.001
14	354819	46.90014973911	0.002
14	354850	46.95014973911	0.001
14	355716	47.00014973911	0.002
14	355747	47.05014973911	0.001
14	356618	47.10014973911	0.002
14	356649	47.15014973911	0.001
14	357520	47.20014973911	0.002
14	357551	47.25014973911	0.001
14	358417	47.30014973911	0.002
14	358448	47.35014973911	0.001
14	359341	47.40014973911	0.002
14	359372	47.45014973911	0.001
14	360259	47.50014973911	0.002
14	360290	47.55014973911	0.001
14	361171	47.60014973911	0.002
14	361202	47.65014973911	0.001
14	362073	47.70014973911	0.002
14	362104	47.75014973911	0.001
14	362996	47.80014973911	0.002
14	363027	47.85014973911	0.001
14	363898	47.90014973911	0.002
14	363929	47.95014973911	0.001
14	364822	48.00014973911	0.002
14	364853	48.05014973911	0.001
14	365729	48.10014973911	0.002
14	365760	48.15014973911	0.001
14	366626	48.20014973911	0.002
14	366657	48.25014973911	0.001
14	367528	48.30014973911	0.002
14	367559	48.35014973911	0.001
14	368441	48.40014973911	0.002
14	368472	48.45014973911	0.001
14	369343	48.50014973911	0.002
14	369374	48.55014973911	0.001
14	370267	48.60014973911	0.002
14	370298	48.65014973911	0.001
14	371169	48.70014973911	0.002
14	371200	48.75014973911	0.001
14	372092	48.80014973911	0.002
14	372123	48.85014973911	0.001
14	373010	48.90014973911	0.002
14	373041	48.95014973911	0.001
14	373939	49.00014973911	0.002
14	373970	49.05014973911	0.001
14	374852	49.10014973911	0.002
14	374883	49.15014973911	0.001
14	375738	49.20014973911	0.002
14	375769	49.25014973911	0.001
14	376667	49.30014973911	0.002
14	376698	49.35014973911	0.001
14	377569	49.40014973911	0.002
14	377600	49.45014973911	0.001
14	378482	49.50014973911	0.002
14	378513	49.55014973911	0.001
14	379384	49.60014973911	0.002
14	379415	49.65014973911	0.001
14	380286	49.70014973911	0.002
14	380317	49.75014973911	0.001
14	381199	49.80014973911	0.002
14	381230	49.85014973911	0.001
14	382122	49.90014973911	0.002
14	382153	49.95014973911	0.001
14	383024	50.00014973911	0.002
14	383055	50.05014973911	0.001
14	383931	50.10014973911	0.002
14	383962	50.15014973911	0.001
14	384849	50.20014973911	0.002
14	384880	50.25014973911	0.001
14	385746	50.30014973911	0.002
14	385777	50.35014973911	0.001
14	386654	50.40014973911	0.002
14	386685	50.45014973911	0.001
14	387583	50.50014973911	0.002
14	387614	50.55014973911	0.001
14	388501	50.60014973911	0.002
14	388532	50.65014973911	0.001
14	389403	50.70014973911	0.002
14	389434	50.75014973911	0.001
14	390311	50.80014973911	0.002
14	390342	50.85014973911	0.001
14	391224	50.90014973911	0.002
14	391255	50.95014973911	0.001
14	392142	51.00014973911	0.002
14	392173	51.05014973911	0.001
14	393071	51.10014973911	0.002
14	393102	51.15014973911	0.001
14	393984	51.20014973911	0.002
14	394015	51.25014973911	0.001
14	394918	51.30014973911	0.002
14	394949	51.35014973911	0.001
14	395847	51.40014973911	0.002
14	395878	51.45014973911	0.001
14	396792	51.50014973911	0.002
14	396823	51.55014973911	0.001
14	397705	51.60014973911	0.002
14	397736	51.65014973911	0.001
14	398623	51.70014973911	0.002
14	398654	51.75014973911	0.001
14	399536	51.80014973911	0.002
14	399567	51.85014973911	0.001
14	400449	51.90014973911	0.002
14	400480	51.95014973911	0.001
14	401399	52.00014973911	0.002
14	401430	52.05014973911	0.001
14	402312	52.10014973911	0.002
14	402343	52.15014973911	0.001
14	403241	52.20014973911	0.002
14	403272	52.25014973911	0.001
14	404143	52.30014973911	0.002
14	404174	52.35014973911	0.001
14	405034	52.40014973911	0.002
14	405065	52.45014973911	0.001
14	405952	52.50014973911	0.002
14	405983	52.55014973911	0.001
14	406854	52.60014973911	0.002
14	406885	52.65014973911	0.001
14	407778	52.70014973911	0.002
14	407809	52.75014973911	0.001
14	408707	52.80014973911	0.002
14	408738	52.85014973911	0.001
14	409630	52.90014973911	0.002
14	409661	52.95014973911	0.001
14	410559	53.00014973911	0.002
14	410590	53.05014973911	0.001
14	411450	53.10014973911	0.002
14	411481	53.15014973911	0.001
14	412357	53.20014973911	0.002
14	412388	53.25014973911	0.001
14	413286	53.30014973911	0.002
14	413317	53.35014973911	0.001
14	414193	53.40014973911	0.002
14	414224	53.45014973911	0.001
14	415122	53.50014973911	0.002
14	415153	53.55014973911	0.001
14	416030	53.60014973911	0.002
14	416061	53.65014973911	0.001
14	416937	53.70014973911	0.002
14	416968	53.75014973911	0.001
14	417845	53.80014973911	0.002
14	417876	53.85014973911	0.001
14	418747	53.90014973911	0.002
14	418778	53.95014973911	0.001
14	419660	54.00014973911	0.002
14	419691	54.05014973911	0.001
14	420573	54.10014973911	0.002
14	420604	54.15014973911	0.001
14	421480	54.20014973911	0.002
14	421511	54.25014973911	0.001
14	422409	54.30014973911	0.002
14	422440	54.35014973911	0.001
14	423306	54.40014973911	0.002
14	423337	54.45014973911	0.001
14	424224	54.50014973911	0.002
14	424255	54.55014973911	0.001
14	425142	54.60014973911	0.002
14	425173	54.65014973911	0.001
14	426071	54.70014973911	0.002
14	426102	54.75014973911	0.001
14	426973	54.80014973911	0.002
14	427004	54.85014973911	0.001
14	427891	54.90014973911	0.002
14	427922	54.95014973911	0.001
14	428782	55.00014973911	0.002
14	428813	55.05014973911	0.001
14	429711	55.10014973911	0.002
14	429742	55.15014973911	0.001
14	430618	55.20014973911	0.002
14	430649	55.25014973911	0.001
14	431542	55.30014973911	0.002
14	431573	55.35014973911	0.001
14	432455	55.40014973911	0.002
14	432486	55.45014973911	0.001
14	433384	55.50014973911	0.002
14	433415	55.55014973911	0.001
14	434297	55.60014973911	0.002
14	434328	55.65014973911	0.001
14	435188	55.70014973911	0.002
14	435219	55.75014973911	0.001
14	436106	55.80014973911	0.002
14	436137	55.85014973911	0.001
14	437003	55.90014973911	0.002
14	437034	55.95014973911	0.001
14	437921	56.00014973911	0.002
14	437952	56.05014973911	0.001
14	438829	56.10014973911	0.002
14	438860	56.15014973911	0.001
14	439726	56.20014973911	0.002
14	439757	56.25014973911	0.001
14	440655	56.30014973911	0.002
14	440686	56.35014973911	0.001
14	441568	56.40014973911	0.002
14	441599	56.45014973911	0.001
14	442476	56.50014973911	0.002
14	442507	56.55014973911	0.001
14	443389	56.60014973911	0.002
14	443420	56.65014973911	0.001
14	444275	56.70014973911	0.002
14	444306	56.75014973911	0.001
14	445199	56.80014973911	0.002
14	445230	56.85014973911	0.001
14	446101	56.90014973911	0.002
14	446132	56.95014973911	0.001
14	447019	57.00014973911	0.002
14	447050	57.05014973911	0.001
14	447921	57.10014973911	0.002
14	447952	57.15014973911	0.001
14	448802	57.20014973911	0.002
14	448833	57.25014973911	0.001
14	449709	57.30014973911	0.002
14	449740	57.35014973911	0.001
14	450627	57.40014973911	0.002
14	450658	57.45014973911	0.001
14	451513	57.50014973911	0.002
14	451544	57.55014973911	0.001
14	452415	57.60014973911	0.002
14	452446	57.65014973911	0.001
14	453355	57.70014973911	0.002
14	453386	57.75014973911	0.001
14	454295	57.80014973911	0.002
14	454326	57.85014973911	0.001
14	455203	57.90014973911	0.002
14	455234	57.95014973911	0.001
14	456111	58.00014973911	0.002
14	456142	58.05014973911	0.001
14	457029	58.10014973911	0.002
14	457060	58.15014973911	0.001
14	457947	58.20014973911	0.002
14	457978	58.25014973911	0.001
14	458876	58.30014973911	0.002
14	458907	58.35014973911	0.001
14	459805	58.40014973911	0.002
14	459836	58.45014973911	0.001
14	460745	58.50014973911	0.002
14	460776	58.55014973911	0.001
14	461663	58.60014973911	0.002
14	461694	58.65014973911	0.001
14	462571	58.70014973911	0.002
14	462602	58.75014973911	0.001
14	463500	58.80014973911	0.002
14	463531	58.85014973911	0.001
14	464413	58.90014973911	0.002
14	464444	58.95014973911	0.001
14	465304	59.00014973911	0.002
14	465335	59.05014973911	0.001
14	466201	59.10014973911	0.002
14	466232	59.15014973911	0.001
14	467114	59.20014973911	0.002
14	467145	59.25014973911	0.001
14	468027	59.30014973911	0.002
14	468058	59.35014973911	0.001
14	468940	59.40014973911	0.002
14	468971	59.45014973911	0.001
14	469847	59.50014973911	0.002
14	469878	59.55014973911	0.001
14	470776	59.60014973911	0.002
14	470807	59.65014973911	0.001
14	471662	59.70014973911	0.002
14	471693	59.75014973911	0.001
14	472585	59.80014973911	0.002
14	472616	59.85014973911	0.001
14	473514	59.90014973911	0.002
14	473545	59.95014973911	0.001
14	474427	60.00014973911	0.002
14	474458	60.05014973911	0.001
14	475351	60.10014973911	0.002
14	475382	60.15014973911	0.001
14	476264	60.20014973911	0.002
14	476295	60.25014973911	0.001
14	477166	60.30014973911	0.002
14	477197	60.35014973911	0.001
14	478073	60.40014973911	0.002
14	478104	60.45014973911	0.001
14	478970	60.50014973911	0.002
14	479001	60.55014973911	0.001
14	479867	60.60014973911	0.002
14	479898	60.65014973911	0.001
14	480796	60.70014973911	0.002
14	480827	60.75014973911	0.001
14	481730	60.80014973911	0.002
14	481761	60.85014973911	0.001
14	482627	60.90014973911	0.002
14	482658	60.95014973911	0.001
14	483534	61.00014973911	0.002
14	483565	61.05014973911	0.001
14	484452	61.10014973911	0.002
14	484483	61.15014973911	0.001
14	485354	61.20014973911	0.002
14	485385	61.25014973911	0.001
14	486272	61.30014973911	0.002
14	486303	61.35014973911	0.001
14	487185	61.40014973911	0.002
14	487216	61.45014973911	0.001
14	488109	61.50014973911	0.002
14	488140	61.55014973911	0.001
14	489038	61.60014973911	0.002
14	489062	61.65014973911	0.001
14	489670	61.70014973911	0.002
14	489694	61.75014973911	0.001
14	490293	61.80014973911	0.002
14	490317	61.85014973911	0.001
14	490929	61.90014973911	0.002
14	490953	61.95014973911	0.001
14	491552	62.00014973911	0.002
14	491576	62.05014973911	0.001
14	492171	62.10014973911	0.002
14	492195	62.15014973911	0.001
14	492807	62.20014973911	0.002
14	492831	62.25014973911	0.001
14	493430	62.30014973911	0.002
14	493454	62.35014973911	0.001
14	494062	62.40014973911	0.002
14	494086	62.45014973911	0.001
14	494689	62.50014973911	0.002
14	494713	62.55014973911	0.001
14	495312	62.60014973911	0.002
14	495336	62.65014973911	0.001
14	495957	62.70014973911	0.002
14	495981	62.75014973911	0.001
14	496584	62.80014973911	0.002
14	496608	62.85014973911	0.001
14	497216	62.90014973911	0.002
14	497240	62.95014973911	0.001
14	497839	63.00014973911	0.002
14	497863	63.05014973911	0.001
14	498462	63.10014973911	0.002
14	498486	63.15014973911	0.001
14	499098	63.20014973911	0.002
14	499122	63.25014973911	0.001
14	499730	63.30014973911	0.002
14	499754	63.35014973911	0.001
14	500349	63.40014973911	0.002
14	500373	63.45014973911	0.001
14	500972	63.50014973911	0.002
14	500996	63.55014973911	0.001
14	501608	63.60014973911	0.002
14	501632	63.65014973911	0.001
14	502240	63.70014973911	0.002
14	502264	63.75014973911	0.001
14	502885	63.80014973911	0.002
14	502909	63.85014973911	0.001
14	503521	63.90014973911	0.002
14	503545	63.95014973911	0.001
14	504131	64.00014973911	0.002
14	504155	64.05014973911	0.001
14	504763	64.10014973911	0.002
14	504787	64.15014973911	0.001
14	505412	64.20014973911	0.002
14	505436	64.25014973911	0.001
14	506035	64.30014973911	0.002
14	506059	64.35014973911	0.001
14	506680	64.40014973911	0.002
14	506704	64.45014973911	0.001
14	507303	64.50014973911	0.002
14	507327	64.55014973911	0.001
14	507935	64.60014973911	0.002
14	507954	64.65014973911	0.001
14	508322	64.70014973911	0.002
14	508341	64.75014973911	0.001
14	508726	64.80014973911	0.002
14	508745	64.85014973911	0.001
14	509120	64.90014973911	0.002
14	509139	64.95014973911	0.001
14	509534	65.00014973911	0.002
14	509553	65.05014973911	0.001
14	509938	65.10014973911	0.002
14	509957	65.15014973911	0.001
14	510325	65.20014973911	0.002
14	510344	65.25014973911	0.001
14	510709	65.30014973911	0.002
14	510728	65.35014973911	0.001
14	511103	65.40014973911	0.002
14	511122	65.45014973911	0.001
14	511497	65.50014973911	0.002
14	511516	65.55014973911	0.001
14	511891	65.60014973911	0.002
14	511910	65.65014973911	0.001
14	512295	65.70014973911	0.002
14	512314	65.75014973911	0.001
14	512699	65.80014973911	0.002
14	512718	65.85014973911	0.001
14	513083	65.90014973911	0.002
14	513102	65.95014973911	0.001
14	513477	66.00014973911	0.002
14	513496	66.05014973911	0.001
14	513881	66.10014973911	0.002
14	513900	66.15014973911	0.001
14	514278	66.20014973911	0.002
14	514297	66.25014973911	0.001
14	514672	66.30014973911	0.002
14	514691	66.35014973911	0.001
14	515066	66.40014973911	0.002
14	515085	66.45014973911	0.001
14	515460	66.50014973911	0.002
14	515479	66.55014973911	0.001
14	515864	66.60014973911	0.002
14	515883	66.65014973911	0.001
14	516268	66.70014973911	0.002
14	516287	66.75014973911	0.001
14	516672	66.80014973911	0.002
14	516691	66.85014973911	0.001
14	517076	66.90014973911	0.002
14	517095	66.95014973911	0.001
14	517480	67.00014973911	0.002
14	517499	67.05014973911	0.001
14	517884	67.10014973911	0.002
14	517903	67.15014973911	0.001
14	518271	67.20014973911	0.002
14	518290	67.25014973911	0.001
14	518675	67.30014973911	0.002
14	518694	67.35014973911	0.001
14	519079	67.40014973911	0.002
14	519098	67.45014973911	0.001
14	519463	67.50014973911	0.002
14	519476	67.55014973911	0.001
14	519680	67.60014973911	0.002
14	519693	67.65014973911	0.001
14	519890	67.70014973911	0.002
14	519903	67.75014973911	0.001
14	520100	67.80014973911	0.002
14	520113	67.85014973911	0.001
14	520317	67.90014973911	0.002
14	520330	67.95014973911	0.001
14	520534	68.00014973911	0.002
14	520547	68.05014973911	0.001
14	520751	68.10014973911	0.002
14	520764	68.15014973911	0.001
14	520961	68.20014973911	0.002
14	520974	68.25014973911	0.001
14	521178	68.30014973911	0.002
14	521191	68.35014973911	0.001
14	521395	68.40014973911	0.002
14	521408	68.45014973911	0.001
14	521598	68.50014973911	0.002
14	521611	68.55014973911	0.001
14	521808	68.60014973911	0.002
14	521821	68.65014973911	0.001
14	522025	68.70014973911	0.002
14	522038	68.75014973911	0.001
14	522242	68.80014973911	0.002
14	522255	68.85014973911	0.001
14	522459	68.90014973911	0.002
14	522472	68.95014973911	0.001
14	522669	69.00014973911	0.002
14	522682	69.05014973911	0.001
14	522886	69.10014973911	0.002
14	522899	69.15014973911	0.001
14	523096	69.20014973911	0.002
14	523109	69.25014973911	0.001
14	523313	69.30014973911	0.002
14	523326	69.35014973911	0.001
14	523530	69.40014973911	0.002
14	523543	69.45014973911	0.001
14	523740	69.50014973911	0.002
14	523753	69.55014973911	0.001
14	523950	69.60014973911	0.002
14	523963	69.65014973911	0.001
14	524160	69.70014973911	0.002
14	524173	69.75014973911	0.001
14	524370	69.80014973911	0.002
14	524383	69.85014973911	0.001
14	524587	69.90014973911	0.002
14	524600	69.95014973911	0.001
14	524804	70.00014973911	0.002
14	524817	70.05014973911	0.001
14	525014	70.10014973911	0.002
14	525027	70.15014973911	0.001
14	525231	70.20014973911	0.002
14	525244	70.25014973911	0.001
14	525434	70.30014973911	0.002
14	525447	70.35014973911	0.001
14	525651	70.40014973911	0.002
14	525664	70.45014973911	0.001
14	525868	70.50014973911	0.002
14	525881	70.55014973911	0.001
14	526078	70.60014973911	0.002
14	526091	70.65014973911	0.001
14	526288	70.70014973911	0.002
14	526294	70.75014973911	0.001
14	526368	70.80014973911	0.002
14	526374	70.85014973911	0.001
14	526448	70.90014973911	0.002
14	526454	70.95014973911	0.001
14	526528	71.00014973911	0.002
14	526534	71.05014973911	0.001
14	526608	71.10014973911	0.002
14	526614	71.15014973911	0.001
14	526688	71.20014973911	0.002
14	526694	71.25014973911	0.001
14	526768	71.30014973911	0.002
14	526774	71.35014973911	0.001
14	526848	71.40014973911	0.002
14	526854	71.45014973911	0.001
14	526928	71.50014973911	0.002
14	526934	71.55014973911	0.001
14	527008	71.60014973911	0.002
14	527014	71.65014973911	0.001
14	527088	71.70014973911	0.002
14	527094	71.75014973911	0.001
14	527168	71.80014973911	0.002
14	527174	71.85014973911	0.001
14	527248	71.90014973911	0.002
14	527254	71.95014973911	0.001
14	527328	72.00014973911	0.002
14	527334	72.05014973911	0.001
14	527408	72.10014973911	0.002
14	527414	72.15014973911	0.001
14	527488	72.20014973911	0.002
14	527494	72.25014973911	0.001
14	527568	72.30014973911	0.002
14	527574	72.35014973911	0.001
14	527648	72.40014973911	0.002
14	527654	72.45014973911	0.001
14	527728	72.50014973911	0.002
14	527734	72.55014973911	0.001
14	527808	72.60014973911	0.002
14	527814	72.65014973911	0.001
14	527888	72.70014973911	0.002
14	527894	72.75014973911	0.001
14	527968	72.80014973911	0.002
14	527974	72.85014973911	0.001
14	528048	72.90014973911	0.002
14	528054	72.95014973911	0.001
14	528128	73.00014973911	0.002
14	528134	73.05014973911	0.001
14	528208	73.10014973911	0.002
14	528214	73.15014973911	0.001
14	528288	73.20014973911	0.002
14	528294	73.25014973911	0.001
14	528368	73.30014973911	0.002
14	528374	73.35014973911	0.001
14	528448	73.40014973911	0.002
14	528454	73.45014973911	0.001
14	528528	73.50014973911	0.002
14	528534	73.55014973911	0.001
14	528608	73.60014973911	0.002
14	528614	73.65014973911	0.001
14	528688	73.70014973911	0.002
14	528689	73.75014973911	0.001
14	528690	73.80014973911	0.002
14	528691	73.85014973911	0.001
14	528692	73.90014973911	0.002
14	528693	73.95014973911	0.001
14	528694	74.00014973911	0.002
14	528695	74.05014973911	0.001
14	528696	74.10014973911	0.002
14	528697	74.15014973911	0.001
14	528698	74.20014973911	0.002
14	528699	74.25014973911	0.001
14	528700	74.30014973911	0.002
14	528701	74.35014973911	0.001
14	528702	74.40014973911	0.002
14	528703	74.45014973911	0.001
14	528704	74.50014973911	0.002
14	528705	74.55014973911	0.001
14	528706	74.60014973911	0.002
14	528707	74.65014973911	0.001
14	528708	74.70014973911	0.002
14	528709	74.75014973911	0.001
14	528710	74.80014973911	0.002
14	528711	74.85014973911	0.001
14	528712	74.90014973911	0.002
14	528713	74.95014973911	0.001
14	528714	75.00014973911	0.002
14	528715	75.05014973911	0.001
14	528716	75.10014973911	0.002
14	528717	75.15014973911	0.001
14	528718	75.20014973911	0.002
14	528719	75.25014973911	0.001
14	528720	75.30014973911	0.002
14	528721	75.35014973911	0.001
14	528722	75.40014973911	0.002
14	528723	75.45014973911	0.001
14	528724	75.50014973911	0.002
14	528725	75.55014973911	0.001
14	528726	75.60014973911	0.002
14	528727	75.65014973911	0.001
14	528728	75.70014973911	0.002
14	528729	75.75014973911	0.001
14	528730	75.80014973911	0.002
14	528731	75.85014973911	0.001
14	528732	75.90014973911	0.002
14	528733	75.95014973911	0.001
