version 2
run VoIP-20ms_200B-0-20160923-14:07:15-14538
attr configname VoIP-20ms_200B
attr datetime 20160923-14:07:15
attr experiment VoIP-20ms_200B
attr inifile omnetpp.ini
attr iterationvars ""
attr iterationvars2 $repetition=0
attr measurement ""
attr network SymScenerio
attr processid 14538
attr repetition 0
attr replication #0
attr resultdir results
attr runnumber 0
attr seedset 0
param **.coreDebug false
param **.debug false
param *.**.nic.mac1609_4.bitrate 18Mbps
param *.**.nic.mac1609_4.txPower 20mW
param *.**.nic.mac1609_4.useServiceChannel true
param *.**.nic.phy80211p.analogueModels "xmldoc(\"config.xml\")"
param *.**.nic.phy80211p.decider "xmldoc(\"config.xml\")"
param *.**.nic.phy80211p.sensitivity -89dBm
param *.**.nic.phy80211p.thermalNoise -110dBm
param *.**.nic.phy80211p.usePropagationDelay true
param *.**.nic.phy80211p.useThermalNoise true
param *.annotations.draw false
param *.connectionManager.alpha 2.0
param *.connectionManager.carrierFrequency "5.890e9 Hz"
param *.connectionManager.pMax 20mW
param *.connectionManager.sat -89dBm
param *.connectionManager.sendDirect true
param *.manager.autoShutdown true
param *.manager.host "\"localhost\""
param *.manager.launchConfig "xmldoc(\"map.launchd.xml\")"
param *.manager.margin 25
param *.manager.moduleDisplayString "\"\""
param *.manager.moduleName "\"node\""
param *.manager.moduleType "\"symulacja.veins.nodes.Car\""
param *.manager.port 9999
param *.manager.updateInterval 0.1s
param *.node[*].appl.beaconInterval 1s
param *.node[*].appl.beaconPriority 3
param *.node[*].appl.dataOnSch false
param *.node[*].appl.dataPriority 2
param *.node[*].appl.debug false
param *.node[*].appl.maxOffset 0.005s
param *.node[*].appl.sendBeacons false
param *.node[*].appl.sendData true
param *.node[*].appl.sendVoIP true
param *.node[*].appl.voipInterval 0.020s
param *.node[*].appl.voipLengthBits 1600bit
param *.node[*].appl.voipOnSch true
param *.node[*].appl.voipPriority 3
param *.node[*].applType "\"Sym11p\""
param *.node[*].veinsmobility.x 0
param *.node[*].veinsmobility.y 0
param *.node[*].veinsmobility.z 1.895
param *.node[*].veinsmobilityType "\"symulacja.veins.modules.mobility.traci.TraCIMobility\""
param *.playgroundSizeX 9000m
param *.playgroundSizeY 9000m
param *.playgroundSizeZ 50m
param *.rsu[*].appl.beaconInterval 1s
param *.rsu[*].appl.beaconPriority 3
param *.rsu[*].appl.dataOnSch false
param *.rsu[*].appl.dataPriority 2
param *.rsu[*].appl.debug false
param *.rsu[*].appl.headerLength "256 bit"
param *.rsu[*].appl.maxOffset 0.005s
param *.rsu[*].appl.sendBeacons false
param *.rsu[*].appl.sendData false
param *.rsu[*].appl.sendVoIP false
param *.rsu[*].applType "\"SymRSU11p\""
param *.rsu[0].mobility.x 2160
param *.rsu[0].mobility.y 3100
param *.rsu[0].mobility.z 3
param *.world.use2D false
param *.world.useTorus false

vector 14  SymScenerio.rsu[0].nic.mac1609_4  "Interwały kanałów"  ETV
vector 23  SymScenerio.node[0].veinsmobility  posx  ETV
vector 24  SymScenerio.node[0].veinsmobility  posy  ETV
vector 22  SymScenerio.node[0].nic.mac1609_4  "Interwały kanałów"  ETV
vector 25  SymScenerio.node[0].veinsmobility  speed  ETV
vector 26  SymScenerio.node[0].veinsmobility  acceleration  ETV
vector 27  SymScenerio.node[0].veinsmobility  co2emission  ETV
vector 15  SymScenerio.node[0].appl  "TX Packets"  ETV
vector 16  SymScenerio.node[0].appl  "TX Total"  ETV
vector 17  SymScenerio.node[0].appl  Pakietyzacja  ETV
vector 5  SymScenerio.rsu[0].appl  nodeALL:vector  ETV
attr source  nodeALL
attr title  "Opoznienia ALL, vector"
vector 9  SymScenerio.rsu[0].appl  "RX Packet"  ETV
vector 0  SymScenerio.rsu[0].appl  node0:vector  ETV
attr source  node0
attr title  "Opoznienia node0, vector"
vector 36  SymScenerio.node[1].veinsmobility  posx  ETV
vector 37  SymScenerio.node[1].veinsmobility  posy  ETV
vector 35  SymScenerio.node[1].nic.mac1609_4  "Interwały kanałów"  ETV
vector 38  SymScenerio.node[1].veinsmobility  speed  ETV
vector 39  SymScenerio.node[1].veinsmobility  acceleration  ETV
vector 40  SymScenerio.node[1].veinsmobility  co2emission  ETV
vector 28  SymScenerio.node[1].appl  "TX Packets"  ETV
vector 29  SymScenerio.node[1].appl  "TX Total"  ETV
vector 30  SymScenerio.node[1].appl  Pakietyzacja  ETV
vector 1  SymScenerio.rsu[0].appl  node1:vector  ETV
attr source  node1
attr title  "Opoznienia node1, vector"
vector 49  SymScenerio.node[2].veinsmobility  posx  ETV
vector 50  SymScenerio.node[2].veinsmobility  posy  ETV
vector 48  SymScenerio.node[2].nic.mac1609_4  "Interwały kanałów"  ETV
vector 51  SymScenerio.node[2].veinsmobility  speed  ETV
vector 41  SymScenerio.node[2].appl  "TX Packets"  ETV
vector 42  SymScenerio.node[2].appl  "TX Total"  ETV
vector 43  SymScenerio.node[2].appl  Pakietyzacja  ETV
vector 2  SymScenerio.rsu[0].appl  node2:vector  ETV
attr source  node2
attr title  "Opoznienia node2, vector"
vector 52  SymScenerio.node[2].veinsmobility  acceleration  ETV
vector 53  SymScenerio.node[2].veinsmobility  co2emission  ETV
vector 62  SymScenerio.node[3].veinsmobility  posx  ETV
vector 63  SymScenerio.node[3].veinsmobility  posy  ETV
vector 61  SymScenerio.node[3].nic.mac1609_4  "Interwały kanałów"  ETV
vector 64  SymScenerio.node[3].veinsmobility  speed  ETV
vector 65  SymScenerio.node[3].veinsmobility  acceleration  ETV
vector 66  SymScenerio.node[3].veinsmobility  co2emission  ETV
vector 54  SymScenerio.node[3].appl  "TX Packets"  ETV
vector 55  SymScenerio.node[3].appl  "TX Total"  ETV
vector 56  SymScenerio.node[3].appl  Pakietyzacja  ETV
vector 3  SymScenerio.rsu[0].appl  node3:vector  ETV
attr source  node3
attr title  "Opoznienia node3, vector"
vector 75  SymScenerio.node[4].veinsmobility  posx  ETV
vector 76  SymScenerio.node[4].veinsmobility  posy  ETV
vector 74  SymScenerio.node[4].nic.mac1609_4  "Interwały kanałów"  ETV
vector 77  SymScenerio.node[4].veinsmobility  speed  ETV
vector 78  SymScenerio.node[4].veinsmobility  acceleration  ETV
vector 79  SymScenerio.node[4].veinsmobility  co2emission  ETV
vector 67  SymScenerio.node[4].appl  "TX Packets"  ETV
vector 68  SymScenerio.node[4].appl  "TX Total"  ETV
vector 69  SymScenerio.node[4].appl  Pakietyzacja  ETV
vector 4  SymScenerio.rsu[0].appl  node4:vector  ETV
attr source  node4
attr title  "Opoznienia node4, vector"
17	25	0.531827398394	1.002
17	29	0.551827398394	1.002
17	57	0.571827398394	1.002
17	72	0.591827398394	1.002
17	90	0.611827398394	1.002
17	92	0.631827398394	1.002
17	96	0.651827398394	1.002
17	137	0.671827398394	1.002
17	152	0.691827398394	1.002
17	170	0.711827398394	1.002
17	172	0.731827398394	1.002
17	176	0.751827398394	1.002
17	217	0.771827398394	1.002
17	232	0.791827398394	1.002
17	250	0.811827398394	1.002
17	252	0.831827398394	1.002
17	256	0.851827398394	1.002
17	297	0.871827398394	1.002
17	312	0.891827398394	1.002
17	330	0.911827398394	1.002
17	332	0.931827398394	1.002
17	336	0.951827398394	1.002
17	377	0.971827398394	1.002
17	392	0.991827398394	1.002
17	410	1.011827398394	1.002
17	412	1.031827398394	1.002
17	416	1.051827398394	1.002
17	457	1.071827398394	1.002
17	472	1.091827398394	1.002
17	490	1.111827398394	1.002
17	492	1.131827398394	1.002
17	496	1.151827398394	1.002
17	537	1.171827398394	1.002
17	552	1.191827398394	1.002
17	570	1.211827398394	1.002
17	572	1.231827398394	1.002
17	576	1.251827398394	1.002
17	617	1.271827398394	1.002
17	632	1.291827398394	1.002
17	650	1.311827398394	1.002
17	652	1.331827398394	1.002
17	656	1.351827398394	1.002
17	697	1.371827398394	1.002
17	712	1.391827398394	1.002
17	730	1.411827398394	1.002
17	732	1.431827398394	1.002
17	736	1.451827398394	1.002
17	777	1.471827398394	1.002
17	792	1.491827398394	1.002
17	810	1.511827398394	1.002
17	812	1.531827398394	1.002
17	816	1.551827398394	1.002
17	857	1.571827398394	1.002
17	872	1.591827398394	1.002
17	890	1.611827398394	1.002
17	892	1.631827398394	1.002
17	896	1.651827398394	1.002
17	937	1.671827398394	1.002
17	952	1.691827398394	1.002
17	970	1.711827398394	1.002
17	972	1.731827398394	1.002
17	976	1.751827398394	1.002
17	1017	1.771827398394	1.002
17	1032	1.791827398394	1.002
17	1050	1.811827398394	1.002
17	1052	1.831827398394	1.002
17	1056	1.851827398394	1.002
17	1097	1.871827398394	1.002
17	1112	1.891827398394	1.002
17	1130	1.911827398394	1.002
17	1132	1.931827398394	1.002
17	1136	1.951827398394	1.002
17	1177	1.971827398394	1.002
17	1192	1.991827398394	1.002
17	1210	2.011827398394	1.002
17	1212	2.031827398394	1.002
17	1216	2.051827398394	1.002
17	1257	2.071827398394	1.002
17	1272	2.091827398394	1.002
17	1290	2.111827398394	1.002
17	1292	2.131827398394	1.002
17	1296	2.151827398394	1.002
17	1337	2.171827398394	1.002
17	1352	2.191827398394	1.002
17	1370	2.211827398394	1.002
17	1372	2.231827398394	1.002
17	1376	2.251827398394	1.002
17	1417	2.271827398394	1.002
17	1432	2.291827398394	1.002
17	1450	2.311827398394	1.002
17	1452	2.331827398394	1.002
17	1456	2.351827398394	1.002
17	1497	2.371827398394	1.002
17	1512	2.391827398394	1.002
17	1530	2.411827398394	1.002
17	1532	2.431827398394	1.002
17	1536	2.451827398394	1.002
17	1577	2.471827398394	1.002
17	1592	2.491827398394	1.002
17	1610	2.511827398394	1.002
17	1612	2.531827398394	1.002
17	1616	2.551827398394	1.002
17	1657	2.571827398394	1.002
17	1672	2.591827398394	1.002
17	1690	2.611827398394	1.002
17	1692	2.631827398394	1.002
17	1696	2.651827398394	1.002
17	1737	2.671827398394	1.002
17	1752	2.691827398394	1.002
17	1770	2.711827398394	1.002
17	1772	2.731827398394	1.002
17	1776	2.751827398394	1.002
17	1817	2.771827398394	1.002
17	1832	2.791827398394	1.002
17	1850	2.811827398394	1.002
17	1852	2.831827398394	1.002
17	1856	2.851827398394	1.002
17	1897	2.871827398394	1.002
17	1912	2.891827398394	1.002
17	1930	2.911827398394	1.002
17	1932	2.931827398394	1.002
17	1936	2.951827398394	1.002
17	1977	2.971827398394	1.002
17	1992	2.991827398394	1.002
17	2010	3.011827398394	1.002
17	2012	3.031827398394	1.002
17	2016	3.051827398394	1.002
17	2057	3.071827398394	1.002
17	2072	3.091827398394	1.002
17	2090	3.111827398394	1.002
17	2092	3.131827398394	1.002
17	2097	3.151827398394	1.002
17	2156	3.171827398394	1.002
17	2177	3.191827398394	1.002
17	2202	3.211827398394	1.002
17	2204	3.231827398394	1.002
17	2209	3.251827398394	1.002
17	2268	3.271827398394	1.002
17	2289	3.291827398394	1.002
17	2314	3.311827398394	1.002
17	2316	3.331827398394	1.002
17	2323	3.351827398394	1.002
17	2422	3.371827398394	1.002
17	2464	3.391827398394	1.002
17	2510	3.411827398394	1.002
17	2514	3.431827398394	1.002
17	2521	3.451827398394	1.002
17	2639	3.471827398394	1.002
17	2681	3.491827398394	1.002
17	2727	3.511827398394	1.002
17	2731	3.531827398394	1.002
17	2738	3.551827398394	1.002
17	2856	3.571827398394	1.002
17	2898	3.591827398394	1.002
17	2944	3.611827398394	1.002
17	2948	3.631827398394	1.002
17	2955	3.651827398394	1.002
17	3073	3.671827398394	1.002
17	3115	3.691827398394	1.002
17	3161	3.711827398394	1.002
17	3165	3.731827398394	1.002
17	3172	3.751827398394	1.002
17	3290	3.771827398394	1.002
17	3332	3.791827398394	1.002
17	3378	3.811827398394	1.002
17	3382	3.831827398394	1.002
17	3389	3.851827398394	1.002
17	3500	3.871827398394	1.002
17	3542	3.891827398394	1.002
17	3588	3.911827398394	1.002
17	3592	3.931827398394	1.002
17	3599	3.951827398394	1.002
17	3717	3.971827398394	1.002
17	3759	3.991827398394	1.002
17	3805	4.011827398394	1.002
17	3809	4.031827398394	1.002
17	3816	4.051827398394	1.002
17	3934	4.071827398394	1.002
17	3976	4.091827398394	1.002
17	4022	4.111827398394	1.002
17	4026	4.131827398394	1.002
17	4033	4.151827398394	1.002
17	4151	4.171827398394	1.002
17	4193	4.191827398394	1.002
17	4239	4.211827398394	1.002
17	4243	4.231827398394	1.002
17	4250	4.251827398394	1.002
17	4361	4.271827398394	1.002
17	4403	4.291827398394	1.002
17	4449	4.311827398394	1.002
17	4453	4.331827398394	1.002
17	4460	4.351827398394	1.002
17	4578	4.371827398394	1.002
17	4620	4.391827398394	1.002
17	4666	4.411827398394	1.002
17	4670	4.431827398394	1.002
17	4677	4.451827398394	1.002
17	4788	4.471827398394	1.002
17	4830	4.491827398394	1.002
17	4876	4.511827398394	1.002
17	4880	4.531827398394	1.002
17	4887	4.551827398394	1.002
17	4998	4.571827398394	1.002
17	5040	4.591827398394	1.002
17	5086	4.611827398394	1.002
17	5090	4.631827398394	1.002
17	5097	4.651827398394	1.002
17	5215	4.671827398394	1.002
17	5257	4.691827398394	1.002
17	5303	4.711827398394	1.002
17	5307	4.731827398394	1.002
17	5314	4.751827398394	1.002
17	5425	4.771827398394	1.002
17	5467	4.791827398394	1.002
17	5513	4.811827398394	1.002
17	5517	4.831827398394	1.002
17	5524	4.851827398394	1.002
17	5642	4.871827398394	1.002
17	5684	4.891827398394	1.002
17	5730	4.911827398394	1.002
17	5734	4.931827398394	1.002
17	5741	4.951827398394	1.002
17	5852	4.971827398394	1.002
17	5894	4.991827398394	1.002
17	5940	5.011827398394	1.002
17	5944	5.031827398394	1.002
17	5951	5.051827398394	1.002
17	6062	5.071827398394	1.002
17	6104	5.091827398394	1.002
17	6150	5.111827398394	1.002
17	6154	5.131827398394	1.002
17	6161	5.151827398394	1.002
17	6279	5.171827398394	1.002
17	6321	5.191827398394	1.002
17	6367	5.211827398394	1.002
17	6371	5.231827398394	1.002
17	6378	5.251827398394	1.002
17	6496	5.271827398394	1.002
17	6538	5.291827398394	1.002
17	6584	5.311827398394	1.002
17	6588	5.331827398394	1.002
17	6595	5.351827398394	1.002
17	6713	5.371827398394	1.002
17	6755	5.391827398394	1.002
17	6801	5.411827398394	1.002
17	6805	5.431827398394	1.002
17	6812	5.451827398394	1.002
17	6930	5.471827398394	1.002
17	6972	5.491827398394	1.002
17	7018	5.511827398394	1.002
17	7022	5.531827398394	1.002
17	7029	5.551827398394	1.002
17	7140	5.571827398394	1.002
17	7182	5.591827398394	1.002
17	7228	5.611827398394	1.002
17	7232	5.631827398394	1.002
17	7239	5.651827398394	1.002
17	7357	5.671827398394	1.002
17	7399	5.691827398394	1.002
17	7445	5.711827398394	1.002
17	7449	5.731827398394	1.002
17	7456	5.751827398394	1.002
17	7574	5.771827398394	1.002
17	7616	5.791827398394	1.002
17	7662	5.811827398394	1.002
17	7666	5.831827398394	1.002
17	7673	5.851827398394	1.002
17	7791	5.871827398394	1.002
17	7833	5.891827398394	1.002
17	7879	5.911827398394	1.002
17	7883	5.931827398394	1.002
17	7890	5.951827398394	1.002
17	8001	5.971827398394	1.002
17	8043	5.991827398394	1.002
17	8089	6.011827398394	1.002
17	8093	6.031827398394	1.002
17	8100	6.051827398394	1.002
17	8218	6.071827398394	1.002
17	8260	6.091827398394	1.002
17	8306	6.111827398394	1.002
17	8310	6.131827398394	1.002
17	8318	6.151827398394	1.002
17	8472	6.171827398394	1.002
17	8526	6.191827398394	1.002
17	8585	6.211827398394	1.002
17	8589	6.231827398394	1.002
17	8597	6.251827398394	1.002
17	8768	6.271827398394	1.002
17	8849	6.291827398394	1.002
17	8935	6.311827398394	1.002
17	8941	6.331827398394	1.002
17	8951	6.351827398394	1.002
17	9162	6.371827398394	1.002
17	9243	6.391827398394	1.002
17	9329	6.411827398394	1.002
17	9335	6.431827398394	1.002
17	9345	6.451827398394	1.002
17	9566	6.471827398394	1.002
17	9647	6.491827398394	1.002
17	9733	6.511827398394	1.002
17	9739	6.531827398394	1.002
17	9749	6.551827398394	1.002
17	9970	6.571827398394	1.002
17	10051	6.591827398394	1.002
17	10137	6.611827398394	1.002
17	10143	6.631827398394	1.002
17	10153	6.651827398394	1.002
17	10374	6.671827398394	1.002
17	10455	6.691827398394	1.002
17	10541	6.711827398394	1.002
17	10547	6.731827398394	1.002
17	10557	6.751827398394	1.002
17	10768	6.771827398394	1.002
17	10849	6.791827398394	1.002
17	10935	6.811827398394	1.002
17	10941	6.831827398394	1.002
17	10951	6.851827398394	1.002
17	11172	6.871827398394	1.002
17	11253	6.891827398394	1.002
17	11339	6.911827398394	1.002
17	11345	6.931827398394	1.002
17	11355	6.951827398394	1.002
17	11576	6.971827398394	1.002
17	11657	6.991827398394	1.002
17	11743	7.011827398394	1.002
17	11749	7.031827398394	1.002
17	11759	7.051827398394	1.002
17	11980	7.071827398394	1.002
17	12061	7.091827398394	1.002
17	12147	7.111827398394	1.002
17	12153	7.131827398394	1.002
17	12163	7.151827398394	1.002
17	12384	7.171827398394	1.002
17	12465	7.191827398394	1.002
17	12551	7.211827398394	1.002
17	12557	7.231827398394	1.002
17	12567	7.251827398394	1.002
17	12798	7.271827398394	1.002
17	12879	7.291827398394	1.002
17	12965	7.311827398394	1.002
17	12971	7.331827398394	1.002
17	12981	7.351827398394	1.002
17	13202	7.371827398394	1.002
17	13283	7.391827398394	1.002
17	13369	7.411827398394	1.002
17	13375	7.431827398394	1.002
17	13385	7.451827398394	1.002
17	13596	7.471827398394	1.002
17	13677	7.491827398394	1.002
17	13763	7.511827398394	1.002
17	13769	7.531827398394	1.002
17	13779	7.551827398394	1.002
17	13990	7.571827398394	1.002
17	14071	7.591827398394	1.002
17	14157	7.611827398394	1.002
17	14163	7.631827398394	1.002
17	14173	7.651827398394	1.002
17	14394	7.671827398394	1.002
17	14475	7.691827398394	1.002
17	14561	7.711827398394	1.002
17	14567	7.731827398394	1.002
17	14577	7.751827398394	1.002
17	14791	7.771827398394	1.002
17	14872	7.791827398394	1.002
17	14958	7.811827398394	1.002
17	14964	7.831827398394	1.002
17	14974	7.851827398394	1.002
17	15195	7.871827398394	1.002
17	15276	7.891827398394	1.002
17	15362	7.911827398394	1.002
17	15368	7.931827398394	1.002
17	15378	7.951827398394	1.002
17	15599	7.971827398394	1.002
17	15680	7.991827398394	1.002
17	15766	8.011827398394	1.002
17	15772	8.031827398394	1.002
17	15782	8.051827398394	1.002
17	16003	8.071827398394	1.002
17	16084	8.091827398394	1.002
17	16170	8.111827398394	1.002
17	16176	8.131827398394	1.002
17	16186	8.151827398394	1.002
17	16400	8.171827398394	1.002
17	16481	8.191827398394	1.002
17	16567	8.211827398394	1.002
17	16573	8.231827398394	1.002
17	16583	8.251827398394	1.002
17	16797	8.271827398394	1.002
17	16878	8.291827398394	1.002
17	16964	8.311827398394	1.002
17	16970	8.331827398394	1.002
17	16980	8.351827398394	1.002
17	17194	8.371827398394	1.002
17	17275	8.391827398394	1.002
17	17361	8.411827398394	1.002
17	17367	8.431827398394	1.002
17	17377	8.451827398394	1.002
17	17598	8.471827398394	1.002
17	17679	8.491827398394	1.002
17	17765	8.511827398394	1.002
17	17771	8.531827398394	1.002
17	17781	8.551827398394	1.002
17	17992	8.571827398394	1.002
17	18073	8.591827398394	1.002
17	18159	8.611827398394	1.002
17	18165	8.631827398394	1.002
17	18175	8.651827398394	1.002
17	18386	8.671827398394	1.002
17	18467	8.691827398394	1.002
17	18553	8.711827398394	1.002
17	18559	8.731827398394	1.002
17	18569	8.751827398394	1.002
17	18790	8.771827398394	1.002
17	18871	8.791827398394	1.002
17	18957	8.811827398394	1.002
17	18963	8.831827398394	1.002
17	18973	8.851827398394	1.002
17	19194	8.871827398394	1.002
17	19275	8.891827398394	1.002
17	19361	8.911827398394	1.002
17	19367	8.931827398394	1.002
17	19377	8.951827398394	1.002
17	19588	8.971827398394	1.002
17	19669	8.991827398394	1.002
17	19755	9.011827398394	1.002
17	19761	9.031827398394	1.002
17	19771	9.051827398394	1.002
17	19992	9.071827398394	1.002
17	20073	9.091827398394	1.002
17	20159	9.111827398394	1.002
17	20165	9.131827398394	1.002
17	20176	9.151827398394	1.002
17	20448	9.171827398394	1.002
17	20547	9.191827398394	1.002
17	20652	9.211827398394	1.002
17	20658	9.231827398394	1.002
17	20669	9.251827398394	1.002
17	20928	9.271827398394	1.002
17	21027	9.291827398394	1.002
17	21132	9.311827398394	1.002
17	21138	9.331827398394	1.002
17	21149	9.351827398394	1.002
17	21455	9.371827398394	1.002
17	21587	9.391827398394	1.002
17	21694	9.411827398394	1.002
17	21702	9.431827398394	1.002
17	21715	9.451827398394	1.002
17	22100	9.471827398394	1.002
17	22232	9.491827398394	1.002
17	22339	9.511827398394	1.002
17	22347	9.531827398394	1.002
17	22360	9.551827398394	1.002
17	22758	9.571827398394	1.002
17	22890	9.591827398394	1.002
17	22997	9.611827398394	1.002
17	23005	9.631827398394	1.002
17	23018	9.651827398394	1.002
17	23403	9.671827398394	1.002
17	23535	9.691827398394	1.002
17	23642	9.711827398394	1.002
17	23650	9.731827398394	1.002
17	23663	9.751827398394	1.002
17	24048	9.771827398394	1.002
17	24180	9.791827398394	1.002
17	24287	9.811827398394	1.002
17	24295	9.831827398394	1.002
17	24308	9.851827398394	1.002
17	24693	9.871827398394	1.002
17	24825	9.891827398394	1.002
17	24932	9.911827398394	1.002
17	24940	9.931827398394	1.002
17	24953	9.951827398394	1.002
17	25329	9.971827398394	1.002
17	25461	9.991827398394	1.002
17	25568	10.011827398394	1.002
17	25576	10.031827398394	1.002
17	25589	10.051827398394	1.002
17	25974	10.071827398394	1.002
17	26106	10.091827398394	1.002
17	26213	10.111827398394	1.002
17	26221	10.131827398394	1.002
17	26234	10.151827398394	1.002
17	26601	10.171827398394	1.002
17	26733	10.191827398394	1.002
17	26840	10.211827398394	1.002
17	26848	10.231827398394	1.002
17	26861	10.251827398394	1.002
17	27246	10.271827398394	1.002
17	27378	10.291827398394	1.002
17	27485	10.311827398394	1.002
17	27493	10.331827398394	1.002
17	27506	10.351827398394	1.002
17	27891	10.371827398394	1.002
17	28023	10.391827398394	1.002
17	28130	10.411827398394	1.002
17	28138	10.431827398394	1.002
17	28151	10.451827398394	1.002
17	28536	10.471827398394	1.002
17	28668	10.491827398394	1.002
17	28775	10.511827398394	1.002
17	28783	10.531827398394	1.002
17	28796	10.551827398394	1.002
17	29181	10.571827398394	1.002
17	29313	10.591827398394	1.002
17	29420	10.611827398394	1.002
17	29428	10.631827398394	1.002
17	29441	10.651827398394	1.002
17	29826	10.671827398394	1.002
17	29958	10.691827398394	1.002
17	30065	10.711827398394	1.002
17	30073	10.731827398394	1.002
17	30086	10.751827398394	1.002
17	30458	10.771827398394	1.002
17	30590	10.791827398394	1.002
17	30697	10.811827398394	1.002
17	30705	10.831827398394	1.002
17	30718	10.851827398394	1.002
17	31094	10.871827398394	1.002
17	31226	10.891827398394	1.002
17	31333	10.911827398394	1.002
17	31341	10.931827398394	1.002
17	31354	10.951827398394	1.002
17	31752	10.971827398394	1.002
17	31884	10.991827398394	1.002
17	31991	11.011827398394	1.002
17	31999	11.031827398394	1.002
17	32012	11.051827398394	1.002
17	32388	11.071827398394	1.002
17	32520	11.091827398394	1.002
17	32627	11.111827398394	1.002
17	32635	11.131827398394	1.002
17	32648	11.151827398394	1.002
17	33015	11.171827398394	1.002
17	33147	11.191827398394	1.002
17	33254	11.211827398394	1.002
17	33262	11.231827398394	1.002
17	33275	11.251827398394	1.002
17	33651	11.271827398394	1.002
17	33783	11.291827398394	1.002
17	33890	11.311827398394	1.002
17	33898	11.331827398394	1.002
17	33911	11.351827398394	1.002
17	34283	11.371827398394	1.002
17	34415	11.391827398394	1.002
17	34522	11.411827398394	1.002
17	34530	11.431827398394	1.002
17	34543	11.451827398394	1.002
17	34915	11.471827398394	1.002
17	35047	11.491827398394	1.002
17	35154	11.511827398394	1.002
17	35162	11.531827398394	1.002
17	35175	11.551827398394	1.002
17	35542	11.571827398394	1.002
17	35674	11.591827398394	1.002
17	35781	11.611827398394	1.002
17	35789	11.631827398394	1.002
17	35802	11.651827398394	1.002
17	36178	11.671827398394	1.002
17	36310	11.691827398394	1.002
17	36417	11.711827398394	1.002
17	36425	11.731827398394	1.002
17	36438	11.751827398394	1.002
17	36836	11.771827398394	1.002
17	36968	11.791827398394	1.002
17	37075	11.811827398394	1.002
17	37083	11.831827398394	1.002
17	37096	11.851827398394	1.002
17	37481	11.871827398394	1.002
17	37613	11.891827398394	1.002
17	37720	11.911827398394	1.002
17	37728	11.931827398394	1.002
17	37741	11.951827398394	1.002
17	38139	11.971827398394	1.002
17	38271	11.991827398394	1.002
17	38378	12.011827398394	1.002
17	38386	12.031827398394	1.002
17	38399	12.051827398394	1.002
17	38784	12.071827398394	1.002
17	38916	12.091827398394	1.002
17	39023	12.111827398394	1.002
17	39031	12.131827398394	1.002
17	39045	12.151827398394	1.002
17	39491	12.171827398394	1.002
17	39647	12.191827398394	1.002
17	39773	12.211827398394	1.002
17	39781	12.231827398394	1.002
17	39795	12.251827398394	1.002
17	40236	12.271827398394	1.002
17	40392	12.291827398394	1.002
17	40518	12.311827398394	1.002
17	40526	12.331827398394	1.002
17	40540	12.351827398394	1.002
17	40998	12.371827398394	1.002
17	41154	12.391827398394	1.002
17	41280	12.411827398394	1.002
17	41288	12.431827398394	1.002
17	41302	12.451827398394	1.002
17	41733	12.471827398394	1.002
17	41889	12.491827398394	1.002
17	42015	12.511827398394	1.002
17	42023	12.531827398394	1.002
17	42037	12.551827398394	1.002
17	42484	12.571827398394	1.002
17	42640	12.591827398394	1.002
17	42766	12.611827398394	1.002
17	42774	12.631827398394	1.002
17	42788	12.651827398394	1.002
17	43284	12.671827398394	1.002
17	43479	12.691827398394	1.002
17	43644	12.711827398394	1.002
17	43654	12.731827398394	1.002
17	43670	12.751827398394	1.002
17	44229	12.771827398394	1.002
17	44424	12.791827398394	1.002
17	44589	12.811827398394	1.002
17	44599	12.831827398394	1.002
17	44615	12.851827398394	1.002
17	45159	12.871827398394	1.002
17	45354	12.891827398394	1.002
17	45519	12.911827398394	1.002
17	45529	12.931827398394	1.002
17	45545	12.951827398394	1.002
17	46093	12.971827398394	1.002
17	46288	12.991827398394	1.002
17	46453	13.011827398394	1.002
17	46463	13.031827398394	1.002
17	46479	13.051827398394	1.002
17	47038	13.071827398394	1.002
17	47233	13.091827398394	1.002
17	47398	13.111827398394	1.002
17	47408	13.131827398394	1.002
17	47424	13.151827398394	1.002
17	47961	13.171827398394	1.002
17	48156	13.191827398394	1.002
17	48321	13.211827398394	1.002
17	48331	13.231827398394	1.002
17	48347	13.251827398394	1.002
17	48890	13.271827398394	1.002
17	49085	13.291827398394	1.002
17	49250	13.311827398394	1.002
17	49260	13.331827398394	1.002
17	49276	13.351827398394	1.002
17	49824	13.371827398394	1.002
17	50019	13.391827398394	1.002
17	50184	13.411827398394	1.002
17	50194	13.431827398394	1.002
17	50210	13.451827398394	1.002
17	50748	13.471827398394	1.002
17	50943	13.491827398394	1.002
17	51108	13.511827398394	1.002
17	51118	13.531827398394	1.002
17	51134	13.551827398394	1.002
17	51673	13.571827398394	1.002
17	51868	13.591827398394	1.002
17	52033	13.611827398394	1.002
17	52043	13.631827398394	1.002
17	52059	13.651827398394	1.002
17	52607	13.671827398394	1.002
17	52802	13.691827398394	1.002
17	52967	13.711827398394	1.002
17	52977	13.731827398394	1.002
17	52993	13.751827398394	1.002
17	53536	13.771827398394	1.002
17	53731	13.791827398394	1.002
17	53896	13.811827398394	1.002
17	53906	13.831827398394	1.002
17	53922	13.851827398394	1.002
17	54486	13.871827398394	1.002
17	54681	13.891827398394	1.002
17	54846	13.911827398394	1.002
17	54856	13.931827398394	1.002
17	54872	13.951827398394	1.002
17	55431	13.971827398394	1.002
17	55626	13.991827398394	1.002
17	55791	14.011827398394	1.002
17	55801	14.031827398394	1.002
17	55817	14.051827398394	1.002
17	56349	14.071827398394	1.002
17	56544	14.091827398394	1.002
17	56709	14.111827398394	1.002
17	56719	14.131827398394	1.002
17	56735	14.151827398394	1.002
17	57305	14.171827398394	1.002
17	57500	14.191827398394	1.002
17	57665	14.211827398394	1.002
17	57675	14.231827398394	1.002
17	57691	14.251827398394	1.002
17	58234	14.271827398394	1.002
17	58429	14.291827398394	1.002
17	58594	14.311827398394	1.002
17	58604	14.331827398394	1.002
17	58620	14.351827398394	1.002
17	59143	14.371827398394	1.002
17	59338	14.391827398394	1.002
17	59503	14.411827398394	1.002
17	59513	14.431827398394	1.002
17	59529	14.451827398394	1.002
17	60061	14.471827398394	1.002
17	60256	14.491827398394	1.002
17	60421	14.511827398394	1.002
17	60431	14.531827398394	1.002
17	60447	14.551827398394	1.002
17	60979	14.571827398394	1.002
17	61174	14.591827398394	1.002
17	61339	14.611827398394	1.002
17	61349	14.631827398394	1.002
17	61365	14.651827398394	1.002
17	61905	14.671827398394	1.002
17	62100	14.691827398394	1.002
17	62265	14.711827398394	1.002
17	62275	14.731827398394	1.002
17	62291	14.751827398394	1.002
17	62818	14.771827398394	1.002
17	63013	14.791827398394	1.002
17	63178	14.811827398394	1.002
17	63188	14.831827398394	1.002
17	63204	14.851827398394	1.002
17	63747	14.871827398394	1.002
17	63942	14.891827398394	1.002
17	64107	14.911827398394	1.002
17	64117	14.931827398394	1.002
17	64133	14.951827398394	1.002
17	64654	14.971827398394	1.002
17	64849	14.991827398394	1.002
17	65014	15.011827398394	1.002
17	65024	15.031827398394	1.002
17	65040	15.051827398394	1.002
17	65572	15.071827398394	1.002
17	65767	15.091827398394	1.002
17	65932	15.111827398394	1.002
17	65942	15.131827398394	1.002
17	65958	15.151827398394	1.002
17	66501	15.171827398394	1.002
17	66696	15.191827398394	1.002
17	66861	15.211827398394	1.002
17	66871	15.231827398394	1.002
17	66887	15.251827398394	1.002
17	67441	15.271827398394	1.002
17	67636	15.291827398394	1.002
17	67801	15.311827398394	1.002
17	67811	15.331827398394	1.002
17	67827	15.351827398394	1.002
17	68381	15.371827398394	1.002
17	68576	15.391827398394	1.002
17	68741	15.411827398394	1.002
17	68751	15.431827398394	1.002
17	68767	15.451827398394	1.002
17	69315	15.471827398394	1.002
17	69510	15.491827398394	1.002
17	69675	15.511827398394	1.002
17	69685	15.531827398394	1.002
17	69701	15.551827398394	1.002
17	70249	15.571827398394	1.002
17	70444	15.591827398394	1.002
17	70609	15.611827398394	1.002
17	70619	15.631827398394	1.002
17	70635	15.651827398394	1.002
17	71157	15.671827398394	1.002
17	71352	15.691827398394	1.002
17	71517	15.711827398394	1.002
17	71527	15.731827398394	1.002
17	71543	15.751827398394	1.002
17	72075	15.771827398394	1.002
17	72270	15.791827398394	1.002
17	72435	15.811827398394	1.002
17	72445	15.831827398394	1.002
17	72461	15.851827398394	1.002
17	72988	15.871827398394	1.002
17	73183	15.891827398394	1.002
17	73348	15.911827398394	1.002
17	73358	15.931827398394	1.002
17	73374	15.951827398394	1.002
17	73922	15.971827398394	1.002
17	74117	15.991827398394	1.002
17	74282	16.011827398394	1.002
17	74292	16.031827398394	1.002
17	74308	16.051827398394	1.002
17	74851	16.071827398394	1.002
17	75046	16.091827398394	1.002
17	75211	16.111827398394	1.002
17	75221	16.131827398394	1.002
17	75237	16.151827398394	1.002
17	75780	16.171827398394	1.002
17	75975	16.191827398394	1.002
17	76140	16.211827398394	1.002
17	76150	16.231827398394	1.002
17	76166	16.251827398394	1.002
17	76720	16.271827398394	1.002
17	76915	16.291827398394	1.002
17	77080	16.311827398394	1.002
17	77090	16.331827398394	1.002
17	77106	16.351827398394	1.002
17	77638	16.371827398394	1.002
17	77833	16.391827398394	1.002
17	77998	16.411827398394	1.002
17	78008	16.431827398394	1.002
17	78024	16.451827398394	1.002
17	78556	16.471827398394	1.002
17	78751	16.491827398394	1.002
17	78916	16.511827398394	1.002
17	78926	16.531827398394	1.002
17	78942	16.551827398394	1.002
17	79480	16.571827398394	1.002
17	79675	16.591827398394	1.002
17	79840	16.611827398394	1.002
17	79850	16.631827398394	1.002
17	79866	16.651827398394	1.002
17	80382	16.671827398394	1.002
17	80577	16.691827398394	1.002
17	80742	16.711827398394	1.002
17	80752	16.731827398394	1.002
17	80768	16.751827398394	1.002
17	81306	16.771827398394	1.002
17	81501	16.791827398394	1.002
17	81666	16.811827398394	1.002
17	81676	16.831827398394	1.002
17	81692	16.851827398394	1.002
17	82219	16.871827398394	1.002
17	82414	16.891827398394	1.002
17	82579	16.911827398394	1.002
17	82589	16.931827398394	1.002
17	82605	16.951827398394	1.002
17	83148	16.971827398394	1.002
17	83343	16.991827398394	1.002
17	83508	17.011827398394	1.002
17	83518	17.031827398394	1.002
17	83534	17.051827398394	1.002
17	84061	17.071827398394	1.002
17	84256	17.091827398394	1.002
17	84421	17.111827398394	1.002
17	84431	17.131827398394	1.002
17	84447	17.151827398394	1.002
17	84985	17.171827398394	1.002
17	85180	17.191827398394	1.002
17	85345	17.211827398394	1.002
17	85355	17.231827398394	1.002
17	85371	17.251827398394	1.002
17	85930	17.271827398394	1.002
17	86125	17.291827398394	1.002
17	86290	17.311827398394	1.002
17	86300	17.331827398394	1.002
17	86316	17.351827398394	1.002
17	86864	17.371827398394	1.002
17	87059	17.391827398394	1.002
17	87224	17.411827398394	1.002
17	87234	17.431827398394	1.002
17	87250	17.451827398394	1.002
17	87809	17.471827398394	1.002
17	88004	17.491827398394	1.002
17	88169	17.511827398394	1.002
17	88179	17.531827398394	1.002
17	88195	17.551827398394	1.002
17	88749	17.571827398394	1.002
17	88944	17.591827398394	1.002
17	89109	17.611827398394	1.002
17	89119	17.631827398394	1.002
17	89135	17.651827398394	1.002
17	89678	17.671827398394	1.002
17	89873	17.691827398394	1.002
17	90038	17.711827398394	1.002
17	90048	17.731827398394	1.002
17	90064	17.751827398394	1.002
17	90607	17.771827398394	1.002
17	90802	17.791827398394	1.002
17	90967	17.811827398394	1.002
17	90977	17.831827398394	1.002
17	90993	17.851827398394	1.002
17	91520	17.871827398394	1.002
17	91715	17.891827398394	1.002
17	91880	17.911827398394	1.002
17	91890	17.931827398394	1.002
17	91906	17.951827398394	1.002
17	92428	17.971827398394	1.002
17	92623	17.991827398394	1.002
17	92788	18.011827398394	1.002
17	92798	18.031827398394	1.002
17	92814	18.051827398394	1.002
17	93351	18.071827398394	1.002
17	93546	18.091827398394	1.002
17	93711	18.111827398394	1.002
17	93721	18.131827398394	1.002
17	93737	18.151827398394	1.002
17	94291	18.171827398394	1.002
17	94486	18.191827398394	1.002
17	94651	18.211827398394	1.002
17	94661	18.231827398394	1.002
17	94677	18.251827398394	1.002
17	95220	18.271827398394	1.002
17	95415	18.291827398394	1.002
17	95580	18.311827398394	1.002
17	95590	18.331827398394	1.002
17	95606	18.351827398394	1.002
17	96144	18.371827398394	1.002
17	96339	18.391827398394	1.002
17	96504	18.411827398394	1.002
17	96514	18.431827398394	1.002
17	96530	18.451827398394	1.002
17	97057	18.471827398394	1.002
17	97252	18.491827398394	1.002
17	97417	18.511827398394	1.002
17	97427	18.531827398394	1.002
17	97443	18.551827398394	1.002
17	97970	18.571827398394	1.002
17	98165	18.591827398394	1.002
17	98330	18.611827398394	1.002
17	98340	18.631827398394	1.002
17	98356	18.651827398394	1.002
17	98878	18.671827398394	1.002
17	99073	18.691827398394	1.002
17	99238	18.711827398394	1.002
17	99248	18.731827398394	1.002
17	99264	18.751827398394	1.002
17	99807	18.771827398394	1.002
17	100002	18.791827398394	1.002
17	100167	18.811827398394	1.002
17	100177	18.831827398394	1.002
17	100193	18.851827398394	1.002
17	100736	18.871827398394	1.002
17	100931	18.891827398394	1.002
17	101096	18.911827398394	1.002
17	101106	18.931827398394	1.002
17	101122	18.951827398394	1.002
17	101638	18.971827398394	1.002
17	101833	18.991827398394	1.002
17	101998	19.011827398394	1.002
17	102008	19.031827398394	1.002
17	102024	19.051827398394	1.002
17	102551	19.071827398394	1.002
17	102746	19.091827398394	1.002
17	102911	19.111827398394	1.002
17	102921	19.131827398394	1.002
17	102937	19.151827398394	1.002
17	103464	19.171827398394	1.002
17	103659	19.191827398394	1.002
17	103824	19.211827398394	1.002
17	103834	19.231827398394	1.002
17	103850	19.251827398394	1.002
17	104377	19.271827398394	1.002
17	104572	19.291827398394	1.002
17	104737	19.311827398394	1.002
17	104747	19.331827398394	1.002
17	104763	19.351827398394	1.002
17	105295	19.371827398394	1.002
17	105490	19.391827398394	1.002
17	105655	19.411827398394	1.002
17	105665	19.431827398394	1.002
17	105681	19.451827398394	1.002
17	106224	19.471827398394	1.002
17	106419	19.491827398394	1.002
17	106584	19.511827398394	1.002
17	106594	19.531827398394	1.002
17	106610	19.551827398394	1.002
17	107137	19.571827398394	1.002
17	107332	19.591827398394	1.002
17	107497	19.611827398394	1.002
17	107507	19.631827398394	1.002
17	107523	19.651827398394	1.002
17	108077	19.671827398394	1.002
17	108272	19.691827398394	1.002
17	108437	19.711827398394	1.002
17	108447	19.731827398394	1.002
17	108463	19.751827398394	1.002
17	109017	19.771827398394	1.002
17	109212	19.791827398394	1.002
17	109377	19.811827398394	1.002
17	109387	19.831827398394	1.002
17	109403	19.851827398394	1.002
17	109935	19.871827398394	1.002
17	110130	19.891827398394	1.002
17	110295	19.911827398394	1.002
17	110305	19.931827398394	1.002
17	110321	19.951827398394	1.002
17	110859	19.971827398394	1.002
17	111054	19.991827398394	1.002
17	111219	20.011827398394	1.002
17	111229	20.031827398394	1.002
17	111245	20.051827398394	1.002
17	111777	20.071827398394	1.002
17	111972	20.091827398394	1.002
17	112137	20.111827398394	1.002
17	112147	20.131827398394	1.002
17	112163	20.151827398394	1.002
17	112706	20.171827398394	1.002
17	112901	20.191827398394	1.002
17	113066	20.211827398394	1.002
17	113076	20.231827398394	1.002
17	113092	20.251827398394	1.002
17	113651	20.271827398394	1.002
17	113846	20.291827398394	1.002
17	114011	20.311827398394	1.002
17	114021	20.331827398394	1.002
17	114037	20.351827398394	1.002
17	114564	20.371827398394	1.002
17	114759	20.391827398394	1.002
17	114924	20.411827398394	1.002
17	114934	20.431827398394	1.002
17	114950	20.451827398394	1.002
17	115504	20.471827398394	1.002
17	115699	20.491827398394	1.002
17	115864	20.511827398394	1.002
17	115874	20.531827398394	1.002
17	115890	20.551827398394	1.002
17	116433	20.571827398394	1.002
17	116628	20.591827398394	1.002
17	116793	20.611827398394	1.002
17	116803	20.631827398394	1.002
17	116819	20.651827398394	1.002
17	117357	20.671827398394	1.002
17	117552	20.691827398394	1.002
17	117717	20.711827398394	1.002
17	117727	20.731827398394	1.002
17	117743	20.751827398394	1.002
17	118313	20.771827398394	1.002
17	118508	20.791827398394	1.002
17	118673	20.811827398394	1.002
17	118683	20.831827398394	1.002
17	118699	20.851827398394	1.002
17	119226	20.871827398394	1.002
17	119421	20.891827398394	1.002
17	119586	20.911827398394	1.002
17	119596	20.931827398394	1.002
17	119612	20.951827398394	1.002
17	120144	20.971827398394	1.002
17	120339	20.991827398394	1.002
17	120504	21.011827398394	1.002
17	120514	21.031827398394	1.002
17	120530	21.051827398394	1.002
17	121089	21.071827398394	1.002
17	121284	21.091827398394	1.002
17	121449	21.111827398394	1.002
17	121459	21.131827398394	1.002
17	121475	21.151827398394	1.002
17	122034	21.171827398394	1.002
17	122229	21.191827398394	1.002
17	122394	21.211827398394	1.002
17	122404	21.231827398394	1.002
17	122420	21.251827398394	1.002
17	122942	21.271827398394	1.002
17	123137	21.291827398394	1.002
17	123302	21.311827398394	1.002
17	123312	21.331827398394	1.002
17	123328	21.351827398394	1.002
17	123866	21.371827398394	1.002
17	124061	21.391827398394	1.002
17	124226	21.411827398394	1.002
17	124236	21.431827398394	1.002
17	124252	21.451827398394	1.002
17	124768	21.471827398394	1.002
17	124963	21.491827398394	1.002
17	125128	21.511827398394	1.002
17	125138	21.531827398394	1.002
17	125154	21.551827398394	1.002
17	125686	21.571827398394	1.002
17	125881	21.591827398394	1.002
17	126046	21.611827398394	1.002
17	126056	21.631827398394	1.002
17	126072	21.651827398394	1.002
17	126610	21.671827398394	1.002
17	126805	21.691827398394	1.002
17	126970	21.711827398394	1.002
17	126980	21.731827398394	1.002
17	126996	21.751827398394	1.002
17	127550	21.771827398394	1.002
17	127745	21.791827398394	1.002
17	127910	21.811827398394	1.002
17	127920	21.831827398394	1.002
17	127936	21.851827398394	1.002
17	128474	21.871827398394	1.002
17	128669	21.891827398394	1.002
17	128834	21.911827398394	1.002
17	128844	21.931827398394	1.002
17	128860	21.951827398394	1.002
17	129419	21.971827398394	1.002
17	129614	21.991827398394	1.002
17	129779	22.011827398394	1.002
17	129789	22.031827398394	1.002
17	129805	22.051827398394	1.002
17	130332	22.071827398394	1.002
17	130527	22.091827398394	1.002
17	130692	22.111827398394	1.002
17	130702	22.131827398394	1.002
17	130718	22.151827398394	1.002
17	131277	22.171827398394	1.002
17	131472	22.191827398394	1.002
17	131637	22.211827398394	1.002
17	131647	22.231827398394	1.002
17	131663	22.251827398394	1.002
17	132184	22.271827398394	1.002
17	132379	22.291827398394	1.002
17	132544	22.311827398394	1.002
17	132554	22.331827398394	1.002
17	132570	22.351827398394	1.002
17	133102	22.371827398394	1.002
17	133297	22.391827398394	1.002
17	133462	22.411827398394	1.002
17	133472	22.431827398394	1.002
17	133488	22.451827398394	1.002
17	134010	22.471827398394	1.002
17	134205	22.491827398394	1.002
17	134370	22.511827398394	1.002
17	134380	22.531827398394	1.002
17	134396	22.551827398394	1.002
17	134934	22.571827398394	1.002
17	135129	22.591827398394	1.002
17	135294	22.611827398394	1.002
17	135304	22.631827398394	1.002
17	135320	22.651827398394	1.002
17	135847	22.671827398394	1.002
17	136042	22.691827398394	1.002
17	136207	22.711827398394	1.002
17	136217	22.731827398394	1.002
17	136233	22.751827398394	1.002
17	136776	22.771827398394	1.002
17	136971	22.791827398394	1.002
17	137136	22.811827398394	1.002
17	137146	22.831827398394	1.002
17	137162	22.851827398394	1.002
17	137721	22.871827398394	1.002
17	137916	22.891827398394	1.002
17	138081	22.911827398394	1.002
17	138091	22.931827398394	1.002
17	138107	22.951827398394	1.002
17	138666	22.971827398394	1.002
17	138861	22.991827398394	1.002
17	139026	23.011827398394	1.002
17	139036	23.031827398394	1.002
17	139052	23.051827398394	1.002
17	139616	23.071827398394	1.002
17	139811	23.091827398394	1.002
17	139976	23.111827398394	1.002
17	139986	23.131827398394	1.002
17	140002	23.151827398394	1.002
17	140534	23.171827398394	1.002
17	140729	23.191827398394	1.002
17	140894	23.211827398394	1.002
17	140904	23.231827398394	1.002
17	140920	23.251827398394	1.002
17	141458	23.271827398394	1.002
17	141653	23.291827398394	1.002
17	141818	23.311827398394	1.002
17	141828	23.331827398394	1.002
17	141844	23.351827398394	1.002
17	142392	23.371827398394	1.002
17	142587	23.391827398394	1.002
17	142752	23.411827398394	1.002
17	142762	23.431827398394	1.002
17	142778	23.451827398394	1.002
17	143337	23.471827398394	1.002
17	143532	23.491827398394	1.002
17	143697	23.511827398394	1.002
17	143707	23.531827398394	1.002
17	143723	23.551827398394	1.002
17	144277	23.571827398394	1.002
17	144472	23.591827398394	1.002
17	144637	23.611827398394	1.002
17	144647	23.631827398394	1.002
17	144663	23.651827398394	1.002
17	145206	23.671827398394	1.002
17	145401	23.691827398394	1.002
17	145566	23.711827398394	1.002
17	145576	23.731827398394	1.002
17	145592	23.751827398394	1.002
17	146130	23.771827398394	1.002
17	146325	23.791827398394	1.002
17	146490	23.811827398394	1.002
17	146500	23.831827398394	1.002
17	146516	23.851827398394	1.002
17	147043	23.871827398394	1.002
17	147238	23.891827398394	1.002
17	147403	23.911827398394	1.002
17	147413	23.931827398394	1.002
17	147429	23.951827398394	1.002
17	147961	23.971827398394	1.002
17	148156	23.991827398394	1.002
17	148321	24.011827398394	1.002
17	148331	24.031827398394	1.002
17	148347	24.051827398394	1.002
17	148906	24.071827398394	1.002
17	149101	24.091827398394	1.002
17	149266	24.111827398394	1.002
17	149276	24.131827398394	1.002
17	149292	24.151827398394	1.002
17	149824	24.171827398394	1.002
17	150019	24.191827398394	1.002
17	150184	24.211827398394	1.002
17	150194	24.231827398394	1.002
17	150210	24.251827398394	1.002
17	150764	24.271827398394	1.002
17	150959	24.291827398394	1.002
17	151124	24.311827398394	1.002
17	151134	24.331827398394	1.002
17	151150	24.351827398394	1.002
17	151682	24.371827398394	1.002
17	151877	24.391827398394	1.002
17	152042	24.411827398394	1.002
17	152052	24.431827398394	1.002
17	152068	24.451827398394	1.002
17	152611	24.471827398394	1.002
17	152806	24.491827398394	1.002
17	152971	24.511827398394	1.002
17	152981	24.531827398394	1.002
17	152997	24.551827398394	1.002
17	153540	24.571827398394	1.002
17	153735	24.591827398394	1.002
17	153900	24.611827398394	1.002
17	153910	24.631827398394	1.002
17	153926	24.651827398394	1.002
17	154480	24.671827398394	1.002
17	154675	24.691827398394	1.002
17	154840	24.711827398394	1.002
17	154850	24.731827398394	1.002
17	154866	24.751827398394	1.002
17	155403	24.771827398394	1.002
17	155598	24.791827398394	1.002
17	155763	24.811827398394	1.002
17	155773	24.831827398394	1.002
17	155789	24.851827398394	1.002
17	156321	24.871827398394	1.002
17	156516	24.891827398394	1.002
17	156681	24.911827398394	1.002
17	156691	24.931827398394	1.002
17	156707	24.951827398394	1.002
17	157261	24.971827398394	1.002
17	157456	24.991827398394	1.002
17	157621	25.011827398394	1.002
17	157631	25.031827398394	1.002
17	157647	25.051827398394	1.002
17	158179	25.071827398394	1.002
17	158374	25.091827398394	1.002
17	158539	25.111827398394	1.002
17	158549	25.131827398394	1.002
17	158565	25.151827398394	1.002
17	159102	25.171827398394	1.002
17	159297	25.191827398394	1.002
17	159462	25.211827398394	1.002
17	159472	25.231827398394	1.002
17	159488	25.251827398394	1.002
17	160026	25.271827398394	1.002
17	160221	25.291827398394	1.002
17	160386	25.311827398394	1.002
17	160396	25.331827398394	1.002
17	160412	25.351827398394	1.002
17	160955	25.371827398394	1.002
17	161150	25.391827398394	1.002
17	161315	25.411827398394	1.002
17	161325	25.431827398394	1.002
17	161341	25.451827398394	1.002
17	161884	25.471827398394	1.002
17	162079	25.491827398394	1.002
17	162244	25.511827398394	1.002
17	162254	25.531827398394	1.002
17	162270	25.551827398394	1.002
17	162792	25.571827398394	1.002
17	162987	25.591827398394	1.002
17	163152	25.611827398394	1.002
17	163162	25.631827398394	1.002
17	163178	25.651827398394	1.002
17	163732	25.671827398394	1.002
17	163927	25.691827398394	1.002
17	164092	25.711827398394	1.002
17	164102	25.731827398394	1.002
17	164118	25.751827398394	1.002
17	164634	25.771827398394	1.002
17	164829	25.791827398394	1.002
17	164994	25.811827398394	1.002
17	165004	25.831827398394	1.002
17	165020	25.851827398394	1.002
17	165563	25.871827398394	1.002
17	165758	25.891827398394	1.002
17	165923	25.911827398394	1.002
17	165933	25.931827398394	1.002
17	165949	25.951827398394	1.002
17	166465	25.971827398394	1.002
17	166660	25.991827398394	1.002
17	166825	26.011827398394	1.002
17	166835	26.031827398394	1.002
17	166851	26.051827398394	1.002
17	167399	26.071827398394	1.002
17	167594	26.091827398394	1.002
17	167759	26.111827398394	1.002
17	167769	26.131827398394	1.002
17	167785	26.151827398394	1.002
17	168323	26.171827398394	1.002
17	168518	26.191827398394	1.002
17	168683	26.211827398394	1.002
17	168693	26.231827398394	1.002
17	168709	26.251827398394	1.002
17	169252	26.271827398394	1.002
17	169447	26.291827398394	1.002
17	169612	26.311827398394	1.002
17	169622	26.331827398394	1.002
17	169638	26.351827398394	1.002
17	170165	26.371827398394	1.002
17	170360	26.391827398394	1.002
17	170525	26.411827398394	1.002
17	170535	26.431827398394	1.002
17	170551	26.451827398394	1.002
17	171072	26.471827398394	1.002
17	171267	26.491827398394	1.002
17	171432	26.511827398394	1.002
17	171442	26.531827398394	1.002
17	171458	26.551827398394	1.002
17	171985	26.571827398394	1.002
17	172180	26.591827398394	1.002
17	172345	26.611827398394	1.002
17	172355	26.631827398394	1.002
17	172371	26.651827398394	1.002
17	172925	26.671827398394	1.002
17	173120	26.691827398394	1.002
17	173285	26.711827398394	1.002
17	173295	26.731827398394	1.002
17	173311	26.751827398394	1.002
17	173854	26.771827398394	1.002
17	174049	26.791827398394	1.002
17	174214	26.811827398394	1.002
17	174224	26.831827398394	1.002
17	174240	26.851827398394	1.002
17	174778	26.871827398394	1.002
17	174973	26.891827398394	1.002
17	175138	26.911827398394	1.002
17	175148	26.931827398394	1.002
17	175164	26.951827398394	1.002
17	175712	26.971827398394	1.002
17	175907	26.991827398394	1.002
17	176072	27.011827398394	1.002
17	176082	27.031827398394	1.002
17	176098	27.051827398394	1.002
17	176614	27.071827398394	1.002
17	176809	27.091827398394	1.002
17	176974	27.111827398394	1.002
17	176984	27.131827398394	1.002
17	177000	27.151827398394	1.002
17	177527	27.171827398394	1.002
17	177722	27.191827398394	1.002
17	177887	27.211827398394	1.002
17	177897	27.231827398394	1.002
17	177913	27.251827398394	1.002
17	178461	27.271827398394	1.002
17	178656	27.291827398394	1.002
17	178821	27.311827398394	1.002
17	178831	27.331827398394	1.002
17	178847	27.351827398394	1.002
17	179379	27.371827398394	1.002
17	179574	27.391827398394	1.002
17	179739	27.411827398394	1.002
17	179749	27.431827398394	1.002
17	179765	27.451827398394	1.002
17	180313	27.471827398394	1.002
17	180508	27.491827398394	1.002
17	180673	27.511827398394	1.002
17	180683	27.531827398394	1.002
17	180699	27.551827398394	1.002
17	181242	27.571827398394	1.002
17	181437	27.591827398394	1.002
17	181602	27.611827398394	1.002
17	181612	27.631827398394	1.002
17	181628	27.651827398394	1.002
17	182171	27.671827398394	1.002
17	182366	27.691827398394	1.002
17	182531	27.711827398394	1.002
17	182541	27.731827398394	1.002
17	182557	27.751827398394	1.002
17	183100	27.771827398394	1.002
17	183295	27.791827398394	1.002
17	183460	27.811827398394	1.002
17	183470	27.831827398394	1.002
17	183486	27.851827398394	1.002
17	184056	27.871827398394	1.002
17	184251	27.891827398394	1.002
17	184416	27.911827398394	1.002
17	184426	27.931827398394	1.002
17	184442	27.951827398394	1.002
17	184985	27.971827398394	1.002
17	185180	27.991827398394	1.002
17	185345	28.011827398394	1.002
17	185355	28.031827398394	1.002
17	185371	28.051827398394	1.002
17	185903	28.071827398394	1.002
17	186098	28.091827398394	1.002
17	186263	28.111827398394	1.002
17	186273	28.131827398394	1.002
17	186289	28.151827398394	1.002
17	186816	28.171827398394	1.002
17	187011	28.191827398394	1.002
17	187176	28.211827398394	1.002
17	187186	28.231827398394	1.002
17	187202	28.251827398394	1.002
17	187734	28.271827398394	1.002
17	187929	28.291827398394	1.002
17	188094	28.311827398394	1.002
17	188104	28.331827398394	1.002
17	188120	28.351827398394	1.002
17	188674	28.371827398394	1.002
17	188869	28.391827398394	1.002
17	189034	28.411827398394	1.002
17	189044	28.431827398394	1.002
17	189060	28.451827398394	1.002
17	189598	28.471827398394	1.002
17	189793	28.491827398394	1.002
17	189958	28.511827398394	1.002
17	189968	28.531827398394	1.002
17	189984	28.551827398394	1.002
17	190532	28.571827398394	1.002
17	190727	28.591827398394	1.002
17	190892	28.611827398394	1.002
17	190902	28.631827398394	1.002
17	190918	28.651827398394	1.002
17	191472	28.671827398394	1.002
17	191667	28.691827398394	1.002
17	191832	28.711827398394	1.002
17	191842	28.731827398394	1.002
17	191858	28.751827398394	1.002
17	192385	28.771827398394	1.002
17	192580	28.791827398394	1.002
17	192745	28.811827398394	1.002
17	192755	28.831827398394	1.002
17	192771	28.851827398394	1.002
17	193319	28.871827398394	1.002
17	193514	28.891827398394	1.002
17	193679	28.911827398394	1.002
17	193689	28.931827398394	1.002
17	193705	28.951827398394	1.002
17	194253	28.971827398394	1.002
17	194448	28.991827398394	1.002
17	194613	29.011827398394	1.002
17	194623	29.031827398394	1.002
17	194639	29.051827398394	1.002
17	195193	29.071827398394	1.002
17	195388	29.091827398394	1.002
17	195553	29.111827398394	1.002
17	195563	29.131827398394	1.002
17	195579	29.151827398394	1.002
17	196111	29.171827398394	1.002
17	196306	29.191827398394	1.002
17	196471	29.211827398394	1.002
17	196481	29.231827398394	1.002
17	196497	29.251827398394	1.002
17	197040	29.271827398394	1.002
17	197235	29.291827398394	1.002
17	197400	29.311827398394	1.002
17	197410	29.331827398394	1.002
17	197426	29.351827398394	1.002
17	197969	29.371827398394	1.002
17	198164	29.391827398394	1.002
17	198329	29.411827398394	1.002
17	198339	29.431827398394	1.002
17	198355	29.451827398394	1.002
17	198898	29.471827398394	1.002
17	199093	29.491827398394	1.002
17	199258	29.511827398394	1.002
17	199268	29.531827398394	1.002
17	199284	29.551827398394	1.002
17	199827	29.571827398394	1.002
17	200022	29.591827398394	1.002
17	200187	29.611827398394	1.002
17	200197	29.631827398394	1.002
17	200213	29.651827398394	1.002
17	200767	29.671827398394	1.002
17	200962	29.691827398394	1.002
17	201127	29.711827398394	1.002
17	201137	29.731827398394	1.002
17	201153	29.751827398394	1.002
17	201691	29.771827398394	1.002
17	201886	29.791827398394	1.002
17	202051	29.811827398394	1.002
17	202061	29.831827398394	1.002
17	202077	29.851827398394	1.002
17	202615	29.871827398394	1.002
17	202810	29.891827398394	1.002
17	202975	29.911827398394	1.002
17	202985	29.931827398394	1.002
17	203001	29.951827398394	1.002
17	203528	29.971827398394	1.002
17	203723	29.991827398394	1.002
17	203888	30.011827398394	1.002
17	203898	30.031827398394	1.002
17	203914	30.051827398394	1.002
17	204441	30.071827398394	1.002
17	204636	30.091827398394	1.002
17	204801	30.111827398394	1.002
17	204811	30.131827398394	1.002
17	204827	30.151827398394	1.002
17	205354	30.171827398394	1.002
17	205549	30.191827398394	1.002
17	205714	30.211827398394	1.002
17	205724	30.231827398394	1.002
17	205740	30.251827398394	1.002
17	206283	30.271827398394	1.002
17	206478	30.291827398394	1.002
17	206643	30.311827398394	1.002
17	206653	30.331827398394	1.002
17	206669	30.351827398394	1.002
17	207212	30.371827398394	1.002
17	207407	30.391827398394	1.002
17	207572	30.411827398394	1.002
17	207582	30.431827398394	1.002
17	207598	30.451827398394	1.002
17	208152	30.471827398394	1.002
17	208347	30.491827398394	1.002
17	208512	30.511827398394	1.002
17	208522	30.531827398394	1.002
17	208538	30.551827398394	1.002
17	209086	30.571827398394	1.002
17	209281	30.591827398394	1.002
17	209446	30.611827398394	1.002
17	209456	30.631827398394	1.002
17	209472	30.651827398394	1.002
17	209993	30.671827398394	1.002
17	210188	30.691827398394	1.002
17	210353	30.711827398394	1.002
17	210363	30.731827398394	1.002
17	210379	30.751827398394	1.002
17	210906	30.771827398394	1.002
17	211101	30.791827398394	1.002
17	211266	30.811827398394	1.002
17	211276	30.831827398394	1.002
17	211292	30.851827398394	1.002
17	211808	30.871827398394	1.002
17	212003	30.891827398394	1.002
17	212168	30.911827398394	1.002
17	212178	30.931827398394	1.002
17	212194	30.951827398394	1.002
17	212742	30.971827398394	1.002
17	212937	30.991827398394	1.002
17	213102	31.011827398394	1.002
17	213112	31.031827398394	1.002
17	213128	31.051827398394	1.002
17	213655	31.071827398394	1.002
17	213850	31.091827398394	1.002
17	214015	31.111827398394	1.002
17	214025	31.131827398394	1.002
17	214041	31.151827398394	1.002
17	214589	31.171827398394	1.002
17	214784	31.191827398394	1.002
17	214949	31.211827398394	1.002
17	214959	31.231827398394	1.002
17	214975	31.251827398394	1.002
17	215502	31.271827398394	1.002
17	215697	31.291827398394	1.002
17	215862	31.311827398394	1.002
17	215872	31.331827398394	1.002
17	215888	31.351827398394	1.002
17	216415	31.371827398394	1.002
17	216610	31.391827398394	1.002
17	216775	31.411827398394	1.002
17	216785	31.431827398394	1.002
17	216801	31.451827398394	1.002
17	217333	31.471827398394	1.002
17	217528	31.491827398394	1.002
17	217693	31.511827398394	1.002
17	217703	31.531827398394	1.002
17	217719	31.551827398394	1.002
17	218246	31.571827398394	1.002
17	218441	31.591827398394	1.002
17	218606	31.611827398394	1.002
17	218616	31.631827398394	1.002
17	218632	31.651827398394	1.002
17	219169	31.671827398394	1.002
17	219364	31.691827398394	1.002
17	219529	31.711827398394	1.002
17	219539	31.731827398394	1.002
17	219555	31.751827398394	1.002
17	220103	31.771827398394	1.002
17	220298	31.791827398394	1.002
17	220463	31.811827398394	1.002
17	220473	31.831827398394	1.002
17	220489	31.851827398394	1.002
17	221043	31.871827398394	1.002
17	221238	31.891827398394	1.002
17	221403	31.911827398394	1.002
17	221413	31.931827398394	1.002
17	221429	31.951827398394	1.002
17	221967	31.971827398394	1.002
17	222162	31.991827398394	1.002
17	222327	32.011827398394	1.002
17	222337	32.031827398394	1.002
17	222353	32.051827398394	1.002
17	222885	32.071827398394	1.002
17	223080	32.091827398394	1.002
17	223245	32.111827398394	1.002
17	223255	32.131827398394	1.002
17	223271	32.151827398394	1.002
17	223798	32.171827398394	1.002
17	223993	32.191827398394	1.002
17	224158	32.211827398394	1.002
17	224168	32.231827398394	1.002
17	224184	32.251827398394	1.002
17	224732	32.271827398394	1.002
17	224927	32.291827398394	1.002
17	225092	32.311827398394	1.002
17	225102	32.331827398394	1.002
17	225118	32.351827398394	1.002
17	225645	32.371827398394	1.002
17	225840	32.391827398394	1.002
17	226005	32.411827398394	1.002
17	226015	32.431827398394	1.002
17	226031	32.451827398394	1.002
17	226574	32.471827398394	1.002
17	226769	32.491827398394	1.002
17	226934	32.511827398394	1.002
17	226944	32.531827398394	1.002
17	226960	32.551827398394	1.002
17	227492	32.571827398394	1.002
17	227687	32.591827398394	1.002
17	227852	32.611827398394	1.002
17	227862	32.631827398394	1.002
17	227878	32.651827398394	1.002
17	228405	32.671827398394	1.002
17	228600	32.691827398394	1.002
17	228765	32.711827398394	1.002
17	228775	32.731827398394	1.002
17	228791	32.751827398394	1.002
17	229334	32.771827398394	1.002
17	229529	32.791827398394	1.002
17	229694	32.811827398394	1.002
17	229704	32.831827398394	1.002
17	229720	32.851827398394	1.002
17	230263	32.871827398394	1.002
17	230458	32.891827398394	1.002
17	230623	32.911827398394	1.002
17	230633	32.931827398394	1.002
17	230649	32.951827398394	1.002
17	231176	32.971827398394	1.002
17	231371	32.991827398394	1.002
17	231536	33.011827398394	1.002
17	231546	33.031827398394	1.002
17	231562	33.051827398394	1.002
17	232110	33.071827398394	1.002
17	232305	33.091827398394	1.002
17	232470	33.111827398394	1.002
17	232480	33.131827398394	1.002
17	232496	33.151827398394	1.002
17	233055	33.171827398394	1.002
17	233250	33.191827398394	1.002
17	233415	33.211827398394	1.002
17	233425	33.231827398394	1.002
17	233441	33.251827398394	1.002
17	233995	33.271827398394	1.002
17	234190	33.291827398394	1.002
17	234355	33.311827398394	1.002
17	234365	33.331827398394	1.002
17	234381	33.351827398394	1.002
17	234913	33.371827398394	1.002
17	235108	33.391827398394	1.002
17	235273	33.411827398394	1.002
17	235283	33.431827398394	1.002
17	235299	33.451827398394	1.002
17	235826	33.471827398394	1.002
17	236021	33.491827398394	1.002
17	236186	33.511827398394	1.002
17	236196	33.531827398394	1.002
17	236212	33.551827398394	1.002
17	236766	33.571827398394	1.002
17	236961	33.591827398394	1.002
17	237126	33.611827398394	1.002
17	237136	33.631827398394	1.002
17	237152	33.651827398394	1.002
17	237695	33.671827398394	1.002
17	237890	33.691827398394	1.002
17	238055	33.711827398394	1.002
17	238065	33.731827398394	1.002
17	238081	33.751827398394	1.002
17	238624	33.771827398394	1.002
17	238819	33.791827398394	1.002
17	238984	33.811827398394	1.002
17	238994	33.831827398394	1.002
17	239010	33.851827398394	1.002
17	239526	33.871827398394	1.002
17	239721	33.891827398394	1.002
17	239886	33.911827398394	1.002
17	239896	33.931827398394	1.002
17	239912	33.951827398394	1.002
17	240455	33.971827398394	1.002
17	240650	33.991827398394	1.002
17	240815	34.011827398394	1.002
17	240825	34.031827398394	1.002
17	240841	34.051827398394	1.002
17	241373	34.071827398394	1.002
17	241568	34.091827398394	1.002
17	241733	34.111827398394	1.002
17	241743	34.131827398394	1.002
17	241759	34.151827398394	1.002
17	242286	34.171827398394	1.002
17	242481	34.191827398394	1.002
17	242646	34.211827398394	1.002
17	242656	34.231827398394	1.002
17	242672	34.251827398394	1.002
17	243188	34.271827398394	1.002
17	243383	34.291827398394	1.002
17	243548	34.311827398394	1.002
17	243558	34.331827398394	1.002
17	243574	34.351827398394	1.002
17	244112	34.371827398394	1.002
17	244307	34.391827398394	1.002
17	244472	34.411827398394	1.002
17	244482	34.431827398394	1.002
17	244498	34.451827398394	1.002
17	245019	34.471827398394	1.002
17	245214	34.491827398394	1.002
17	245379	34.511827398394	1.002
17	245389	34.531827398394	1.002
17	245405	34.551827398394	1.002
17	245964	34.571827398394	1.002
17	246159	34.591827398394	1.002
17	246324	34.611827398394	1.002
17	246334	34.631827398394	1.002
17	246350	34.651827398394	1.002
17	246877	34.671827398394	1.002
17	247072	34.691827398394	1.002
17	247237	34.711827398394	1.002
17	247247	34.731827398394	1.002
17	247263	34.751827398394	1.002
17	247822	34.771827398394	1.002
17	248017	34.791827398394	1.002
17	248182	34.811827398394	1.002
17	248192	34.831827398394	1.002
17	248208	34.851827398394	1.002
17	248746	34.871827398394	1.002
17	248941	34.891827398394	1.002
17	249106	34.911827398394	1.002
17	249116	34.931827398394	1.002
17	249132	34.951827398394	1.002
17	249664	34.971827398394	1.002
17	249859	34.991827398394	1.002
17	250024	35.011827398394	1.002
17	250034	35.031827398394	1.002
17	250050	35.051827398394	1.002
17	250609	35.071827398394	1.002
17	250804	35.091827398394	1.002
17	250969	35.111827398394	1.002
17	250979	35.131827398394	1.002
17	250995	35.151827398394	1.002
17	251538	35.171827398394	1.002
17	251733	35.191827398394	1.002
17	251898	35.211827398394	1.002
17	251908	35.231827398394	1.002
17	251924	35.251827398394	1.002
17	252477	35.271827398394	1.002
17	252672	35.291827398394	1.002
17	252837	35.311827398394	1.002
17	252847	35.331827398394	1.002
17	252863	35.351827398394	1.002
17	253390	35.371827398394	1.002
17	253585	35.391827398394	1.002
17	253750	35.411827398394	1.002
17	253760	35.431827398394	1.002
17	253776	35.451827398394	1.002
17	254319	35.471827398394	1.002
17	254514	35.491827398394	1.002
17	254679	35.511827398394	1.002
17	254689	35.531827398394	1.002
17	254705	35.551827398394	1.002
17	255264	35.571827398394	1.002
17	255459	35.591827398394	1.002
17	255624	35.611827398394	1.002
17	255634	35.631827398394	1.002
17	255650	35.651827398394	1.002
17	256177	35.671827398394	1.002
17	256372	35.691827398394	1.002
17	256537	35.711827398394	1.002
17	256547	35.731827398394	1.002
17	256563	35.751827398394	1.002
17	257095	35.771827398394	1.002
17	257290	35.791827398394	1.002
17	257455	35.811827398394	1.002
17	257465	35.831827398394	1.002
17	257481	35.851827398394	1.002
17	258024	35.871827398394	1.002
17	258219	35.891827398394	1.002
17	258384	35.911827398394	1.002
17	258394	35.931827398394	1.002
17	258410	35.951827398394	1.002
17	258969	35.971827398394	1.002
17	259164	35.991827398394	1.002
17	259329	36.011827398394	1.002
17	259339	36.031827398394	1.002
17	259355	36.051827398394	1.002
17	259898	36.071827398394	1.002
17	260093	36.091827398394	1.002
17	260258	36.111827398394	1.002
17	260268	36.131827398394	1.002
17	260284	36.151827398394	1.002
17	260816	36.171827398394	1.002
17	261011	36.191827398394	1.002
17	261176	36.211827398394	1.002
17	261186	36.231827398394	1.002
17	261202	36.251827398394	1.002
17	261729	36.271827398394	1.002
17	261924	36.291827398394	1.002
17	262089	36.311827398394	1.002
17	262099	36.331827398394	1.002
17	262115	36.351827398394	1.002
17	262669	36.371827398394	1.002
17	262864	36.391827398394	1.002
17	263029	36.411827398394	1.002
17	263039	36.431827398394	1.002
17	263055	36.451827398394	1.002
17	263603	36.471827398394	1.002
17	263798	36.491827398394	1.002
17	263963	36.511827398394	1.002
17	263973	36.531827398394	1.002
17	263989	36.551827398394	1.002
17	264559	36.571827398394	1.002
17	264754	36.591827398394	1.002
17	264919	36.611827398394	1.002
17	264929	36.631827398394	1.002
17	264945	36.651827398394	1.002
17	265461	36.671827398394	1.002
17	265656	36.691827398394	1.002
17	265821	36.711827398394	1.002
17	265831	36.731827398394	1.002
17	265847	36.751827398394	1.002
17	266417	36.771827398394	1.002
17	266612	36.791827398394	1.002
17	266777	36.811827398394	1.002
17	266787	36.831827398394	1.002
17	266803	36.851827398394	1.002
17	267335	36.871827398394	1.002
17	267530	36.891827398394	1.002
17	267695	36.911827398394	1.002
17	267705	36.931827398394	1.002
17	267721	36.951827398394	1.002
17	268248	36.971827398394	1.002
17	268443	36.991827398394	1.002
17	268608	37.011827398394	1.002
17	268618	37.031827398394	1.002
17	268634	37.051827398394	1.002
17	269182	37.071827398394	1.002
17	269377	37.091827398394	1.002
17	269542	37.111827398394	1.002
17	269552	37.131827398394	1.002
17	269568	37.151827398394	1.002
17	270116	37.171827398394	1.002
17	270311	37.191827398394	1.002
17	270476	37.211827398394	1.002
17	270486	37.231827398394	1.002
17	270502	37.251827398394	1.002
17	271045	37.271827398394	1.002
17	271240	37.291827398394	1.002
17	271405	37.311827398394	1.002
17	271415	37.331827398394	1.002
17	271431	37.351827398394	1.002
17	271958	37.371827398394	1.002
17	272153	37.391827398394	1.002
17	272318	37.411827398394	1.002
17	272328	37.431827398394	1.002
17	272344	37.451827398394	1.002
17	272882	37.471827398394	1.002
17	273077	37.491827398394	1.002
17	273242	37.511827398394	1.002
17	273252	37.531827398394	1.002
17	273268	37.551827398394	1.002
17	273827	37.571827398394	1.002
17	274022	37.591827398394	1.002
17	274187	37.611827398394	1.002
17	274197	37.631827398394	1.002
17	274213	37.651827398394	1.002
17	274740	37.671827398394	1.002
17	274935	37.691827398394	1.002
17	275100	37.711827398394	1.002
17	275110	37.731827398394	1.002
17	275126	37.751827398394	1.002
17	275658	37.771827398394	1.002
17	275853	37.791827398394	1.002
17	276018	37.811827398394	1.002
17	276028	37.831827398394	1.002
17	276044	37.851827398394	1.002
17	276592	37.871827398394	1.002
17	276787	37.891827398394	1.002
17	276952	37.911827398394	1.002
17	276962	37.931827398394	1.002
17	276978	37.951827398394	1.002
17	277526	37.971827398394	1.002
17	277721	37.991827398394	1.002
17	277886	38.011827398394	1.002
17	277896	38.031827398394	1.002
17	277912	38.051827398394	1.002
17	278450	38.071827398394	1.002
17	278645	38.091827398394	1.002
17	278810	38.111827398394	1.002
17	278820	38.131827398394	1.002
17	278836	38.151827398394	1.002
17	279363	38.171827398394	1.002
17	279558	38.191827398394	1.002
17	279723	38.211827398394	1.002
17	279733	38.231827398394	1.002
17	279749	38.251827398394	1.002
17	280297	38.271827398394	1.002
17	280492	38.291827398394	1.002
17	280657	38.311827398394	1.002
17	280667	38.331827398394	1.002
17	280683	38.351827398394	1.002
17	281221	38.371827398394	1.002
17	281416	38.391827398394	1.002
17	281581	38.411827398394	1.002
17	281591	38.431827398394	1.002
17	281607	38.451827398394	1.002
17	282150	38.471827398394	1.002
17	282345	38.491827398394	1.002
17	282510	38.511827398394	1.002
17	282520	38.531827398394	1.002
17	282536	38.551827398394	1.002
17	283090	38.571827398394	1.002
17	283285	38.591827398394	1.002
17	283450	38.611827398394	1.002
17	283460	38.631827398394	1.002
17	283476	38.651827398394	1.002
17	283998	38.671827398394	1.002
17	284193	38.691827398394	1.002
17	284358	38.711827398394	1.002
17	284368	38.731827398394	1.002
17	284384	38.751827398394	1.002
17	284911	38.771827398394	1.002
17	285106	38.791827398394	1.002
17	285271	38.811827398394	1.002
17	285281	38.831827398394	1.002
17	285297	38.851827398394	1.002
17	285829	38.871827398394	1.002
17	286024	38.891827398394	1.002
17	286189	38.911827398394	1.002
17	286199	38.931827398394	1.002
17	286215	38.951827398394	1.002
17	286742	38.971827398394	1.002
17	286937	38.991827398394	1.002
17	287102	39.011827398394	1.002
17	287112	39.031827398394	1.002
17	287128	39.051827398394	1.002
17	287682	39.071827398394	1.002
17	287877	39.091827398394	1.002
17	288042	39.111827398394	1.002
17	288052	39.131827398394	1.002
17	288068	39.151827398394	1.002
17	288605	39.171827398394	1.002
17	288800	39.191827398394	1.002
17	288965	39.211827398394	1.002
17	288975	39.231827398394	1.002
17	288991	39.251827398394	1.002
17	289523	39.271827398394	1.002
17	289718	39.291827398394	1.002
17	289883	39.311827398394	1.002
17	289893	39.331827398394	1.002
17	289909	39.351827398394	1.002
17	290441	39.371827398394	1.002
17	290636	39.391827398394	1.002
17	290801	39.411827398394	1.002
17	290811	39.431827398394	1.002
17	290827	39.451827398394	1.002
17	291381	39.471827398394	1.002
17	291576	39.491827398394	1.002
17	291741	39.511827398394	1.002
17	291751	39.531827398394	1.002
17	291767	39.551827398394	1.002
17	292310	39.571827398394	1.002
17	292505	39.591827398394	1.002
17	292670	39.611827398394	1.002
17	292680	39.631827398394	1.002
17	292696	39.651827398394	1.002
17	293244	39.671827398394	1.002
17	293439	39.691827398394	1.002
17	293604	39.711827398394	1.002
17	293614	39.731827398394	1.002
17	293630	39.751827398394	1.002
17	294189	39.771827398394	1.002
17	294384	39.791827398394	1.002
17	294549	39.811827398394	1.002
17	294559	39.831827398394	1.002
17	294575	39.851827398394	1.002
17	295139	39.871827398394	1.002
17	295334	39.891827398394	1.002
17	295499	39.911827398394	1.002
17	295509	39.931827398394	1.002
17	295525	39.951827398394	1.002
17	296068	39.971827398394	1.002
17	296263	39.991827398394	1.002
17	296428	40.011827398394	1.002
17	296438	40.031827398394	1.002
17	296454	40.051827398394	1.002
17	296986	40.071827398394	1.002
17	297181	40.091827398394	1.002
17	297346	40.111827398394	1.002
17	297356	40.131827398394	1.002
17	297372	40.151827398394	1.002
17	297915	40.171827398394	1.002
17	298110	40.191827398394	1.002
17	298275	40.211827398394	1.002
17	298285	40.231827398394	1.002
17	298301	40.251827398394	1.002
17	298833	40.271827398394	1.002
17	299028	40.291827398394	1.002
17	299193	40.311827398394	1.002
17	299203	40.331827398394	1.002
17	299219	40.351827398394	1.002
17	299783	40.371827398394	1.002
17	299978	40.391827398394	1.002
17	300143	40.411827398394	1.002
17	300153	40.431827398394	1.002
17	300169	40.451827398394	1.002
17	300696	40.471827398394	1.002
17	300891	40.491827398394	1.002
17	301056	40.511827398394	1.002
17	301066	40.531827398394	1.002
17	301082	40.551827398394	1.002
17	301636	40.571827398394	1.002
17	301831	40.591827398394	1.002
17	301996	40.611827398394	1.002
17	302006	40.631827398394	1.002
17	302022	40.651827398394	1.002
17	302560	40.671827398394	1.002
17	302755	40.691827398394	1.002
17	302920	40.711827398394	1.002
17	302930	40.731827398394	1.002
17	302946	40.751827398394	1.002
17	303462	40.771827398394	1.002
17	303657	40.791827398394	1.002
17	303822	40.811827398394	1.002
17	303832	40.831827398394	1.002
17	303848	40.851827398394	1.002
17	304375	40.871827398394	1.002
17	304570	40.891827398394	1.002
17	304735	40.911827398394	1.002
17	304745	40.931827398394	1.002
17	304761	40.951827398394	1.002
17	305288	40.971827398394	1.002
17	305483	40.991827398394	1.002
17	305648	41.011827398394	1.002
17	305658	41.031827398394	1.002
17	305674	41.051827398394	1.002
17	306212	41.071827398394	1.002
17	306407	41.091827398394	1.002
17	306572	41.111827398394	1.002
17	306582	41.131827398394	1.002
17	306598	41.151827398394	1.002
17	307136	41.171827398394	1.002
17	307331	41.191827398394	1.002
17	307496	41.211827398394	1.002
17	307506	41.231827398394	1.002
17	307522	41.251827398394	1.002
17	308065	41.271827398394	1.002
17	308260	41.291827398394	1.002
17	308425	41.311827398394	1.002
17	308435	41.331827398394	1.002
17	308451	41.351827398394	1.002
17	309005	41.371827398394	1.002
17	309200	41.391827398394	1.002
17	309365	41.411827398394	1.002
17	309375	41.431827398394	1.002
17	309391	41.451827398394	1.002
17	309934	41.471827398394	1.002
17	310129	41.491827398394	1.002
17	310294	41.511827398394	1.002
17	310304	41.531827398394	1.002
17	310320	41.551827398394	1.002
17	310852	41.571827398394	1.002
17	311047	41.591827398394	1.002
17	311212	41.611827398394	1.002
17	311222	41.631827398394	1.002
17	311238	41.651827398394	1.002
17	311781	41.671827398394	1.002
17	311976	41.691827398394	1.002
17	312141	41.711827398394	1.002
17	312151	41.731827398394	1.002
17	312167	41.751827398394	1.002
17	312699	41.771827398394	1.002
17	312894	41.791827398394	1.002
17	313059	41.811827398394	1.002
17	313069	41.831827398394	1.002
17	313085	41.851827398394	1.002
17	313612	41.871827398394	1.002
17	313807	41.891827398394	1.002
17	313972	41.911827398394	1.002
17	313982	41.931827398394	1.002
17	313998	41.951827398394	1.002
17	314546	41.971827398394	1.002
17	314741	41.991827398394	1.002
17	314906	42.011827398394	1.002
17	314916	42.031827398394	1.002
17	314932	42.051827398394	1.002
17	315475	42.071827398394	1.002
17	315670	42.091827398394	1.002
17	315835	42.111827398394	1.002
17	315845	42.131827398394	1.002
17	315861	42.151827398394	1.002
17	316399	42.171827398394	1.002
17	316594	42.191827398394	1.002
17	316759	42.211827398394	1.002
17	316769	42.231827398394	1.002
17	316785	42.251827398394	1.002
17	317306	42.271827398394	1.002
17	317501	42.291827398394	1.002
17	317666	42.311827398394	1.002
17	317676	42.331827398394	1.002
17	317692	42.351827398394	1.002
17	318219	42.371827398394	1.002
17	318414	42.391827398394	1.002
17	318579	42.411827398394	1.002
17	318589	42.431827398394	1.002
17	318605	42.451827398394	1.002
17	319137	42.471827398394	1.002
17	319332	42.491827398394	1.002
17	319497	42.511827398394	1.002
17	319507	42.531827398394	1.002
17	319523	42.551827398394	1.002
17	320066	42.571827398394	1.002
17	320261	42.591827398394	1.002
17	320426	42.611827398394	1.002
17	320436	42.631827398394	1.002
17	320452	42.651827398394	1.002
17	320995	42.671827398394	1.002
17	321190	42.691827398394	1.002
17	321355	42.711827398394	1.002
17	321365	42.731827398394	1.002
17	321381	42.751827398394	1.002
17	321919	42.771827398394	1.002
17	322114	42.791827398394	1.002
17	322279	42.811827398394	1.002
17	322289	42.831827398394	1.002
17	322305	42.851827398394	1.002
17	322832	42.871827398394	1.002
17	323027	42.891827398394	1.002
17	323192	42.911827398394	1.002
17	323202	42.931827398394	1.002
17	323218	42.951827398394	1.002
17	323745	42.971827398394	1.002
17	323940	42.991827398394	1.002
17	324105	43.011827398394	1.002
17	324115	43.031827398394	1.002
17	324131	43.051827398394	1.002
17	324674	43.071827398394	1.002
17	324869	43.091827398394	1.002
17	325034	43.111827398394	1.002
17	325044	43.131827398394	1.002
17	325060	43.151827398394	1.002
17	325581	43.171827398394	1.002
17	325776	43.191827398394	1.002
17	325941	43.211827398394	1.002
17	325951	43.231827398394	1.002
17	325967	43.251827398394	1.002
17	326494	43.271827398394	1.002
17	326689	43.291827398394	1.002
17	326854	43.311827398394	1.002
17	326864	43.331827398394	1.002
17	326880	43.351827398394	1.002
17	327439	43.371827398394	1.002
17	327634	43.391827398394	1.002
17	327799	43.411827398394	1.002
17	327809	43.431827398394	1.002
17	327825	43.451827398394	1.002
17	328352	43.471827398394	1.002
17	328547	43.491827398394	1.002
17	328712	43.511827398394	1.002
17	328722	43.531827398394	1.002
17	328738	43.551827398394	1.002
17	329286	43.571827398394	1.002
17	329481	43.591827398394	1.002
17	329646	43.611827398394	1.002
17	329656	43.631827398394	1.002
17	329672	43.651827398394	1.002
17	330199	43.671827398394	1.002
17	330394	43.691827398394	1.002
17	330559	43.711827398394	1.002
17	330569	43.731827398394	1.002
17	330585	43.751827398394	1.002
17	331133	43.771827398394	1.002
17	331328	43.791827398394	1.002
17	331493	43.811827398394	1.002
17	331503	43.831827398394	1.002
17	331519	43.851827398394	1.002
17	332062	43.871827398394	1.002
17	332257	43.891827398394	1.002
17	332422	43.911827398394	1.002
17	332432	43.931827398394	1.002
17	332448	43.951827398394	1.002
17	332986	43.971827398394	1.002
17	333181	43.991827398394	1.002
17	333346	44.011827398394	1.002
17	333356	44.031827398394	1.002
17	333372	44.051827398394	1.002
17	333915	44.071827398394	1.002
17	334110	44.091827398394	1.002
17	334275	44.111827398394	1.002
17	334285	44.131827398394	1.002
17	334301	44.151827398394	1.002
17	334822	44.171827398394	1.002
17	335017	44.191827398394	1.002
17	335182	44.211827398394	1.002
17	335192	44.231827398394	1.002
17	335208	44.251827398394	1.002
17	335751	44.271827398394	1.002
17	335946	44.291827398394	1.002
17	336111	44.311827398394	1.002
17	336121	44.331827398394	1.002
17	336137	44.351827398394	1.002
17	336680	44.371827398394	1.002
17	336875	44.391827398394	1.002
17	337040	44.411827398394	1.002
17	337050	44.431827398394	1.002
17	337066	44.451827398394	1.002
17	337604	44.471827398394	1.002
17	337799	44.491827398394	1.002
17	337964	44.511827398394	1.002
17	337974	44.531827398394	1.002
17	337990	44.551827398394	1.002
17	338528	44.571827398394	1.002
17	338723	44.591827398394	1.002
17	338888	44.611827398394	1.002
17	338898	44.631827398394	1.002
17	338914	44.651827398394	1.002
17	339473	44.671827398394	1.002
17	339668	44.691827398394	1.002
17	339833	44.711827398394	1.002
17	339843	44.731827398394	1.002
17	339859	44.751827398394	1.002
17	340418	44.771827398394	1.002
17	340613	44.791827398394	1.002
17	340778	44.811827398394	1.002
17	340788	44.831827398394	1.002
17	340804	44.851827398394	1.002
17	341336	44.871827398394	1.002
17	341531	44.891827398394	1.002
17	341696	44.911827398394	1.002
17	341706	44.931827398394	1.002
17	341722	44.951827398394	1.002
17	342244	44.971827398394	1.002
17	342439	44.991827398394	1.002
17	342604	45.011827398394	1.002
17	342614	45.031827398394	1.002
17	342630	45.051827398394	1.002
17	343184	45.071827398394	1.002
17	343379	45.091827398394	1.002
17	343544	45.111827398394	1.002
17	343554	45.131827398394	1.002
17	343570	45.151827398394	1.002
17	344102	45.171827398394	1.002
17	344297	45.191827398394	1.002
17	344462	45.211827398394	1.002
17	344472	45.231827398394	1.002
17	344488	45.251827398394	1.002
17	345036	45.271827398394	1.002
17	345231	45.291827398394	1.002
17	345396	45.311827398394	1.002
17	345406	45.331827398394	1.002
17	345422	45.351827398394	1.002
17	345970	45.371827398394	1.002
17	346165	45.391827398394	1.002
17	346330	45.411827398394	1.002
17	346340	45.431827398394	1.002
17	346356	45.451827398394	1.002
17	346899	45.471827398394	1.002
17	347094	45.491827398394	1.002
17	347259	45.511827398394	1.002
17	347269	45.531827398394	1.002
17	347285	45.551827398394	1.002
17	347833	45.571827398394	1.002
17	348028	45.591827398394	1.002
17	348193	45.611827398394	1.002
17	348203	45.631827398394	1.002
17	348219	45.651827398394	1.002
17	348778	45.671827398394	1.002
17	348973	45.691827398394	1.002
17	349138	45.711827398394	1.002
17	349148	45.731827398394	1.002
17	349164	45.751827398394	1.002
17	349702	45.771827398394	1.002
17	349897	45.791827398394	1.002
17	350062	45.811827398394	1.002
17	350072	45.831827398394	1.002
17	350088	45.851827398394	1.002
17	350631	45.871827398394	1.002
17	350826	45.891827398394	1.002
17	350991	45.911827398394	1.002
17	351001	45.931827398394	1.002
17	351017	45.951827398394	1.002
17	351549	45.971827398394	1.002
17	351744	45.991827398394	1.002
17	351909	46.011827398394	1.002
17	351919	46.031827398394	1.002
17	351935	46.051827398394	1.002
17	352462	46.071827398394	1.002
17	352657	46.091827398394	1.002
17	352822	46.111827398394	1.002
17	352832	46.131827398394	1.002
17	352848	46.151827398394	1.002
17	353391	46.171827398394	1.002
17	353586	46.191827398394	1.002
17	353751	46.211827398394	1.002
17	353761	46.231827398394	1.002
17	353777	46.251827398394	1.002
17	354320	46.271827398394	1.002
17	354515	46.291827398394	1.002
17	354680	46.311827398394	1.002
17	354690	46.331827398394	1.002
17	354706	46.351827398394	1.002
17	355265	46.371827398394	1.002
17	355460	46.391827398394	1.002
17	355625	46.411827398394	1.002
17	355635	46.431827398394	1.002
17	355651	46.451827398394	1.002
17	356178	46.471827398394	1.002
17	356373	46.491827398394	1.002
17	356538	46.511827398394	1.002
17	356548	46.531827398394	1.002
17	356564	46.551827398394	1.002
17	357112	46.571827398394	1.002
17	357307	46.591827398394	1.002
17	357472	46.611827398394	1.002
17	357482	46.631827398394	1.002
17	357498	46.651827398394	1.002
17	358041	46.671827398394	1.002
17	358236	46.691827398394	1.002
17	358401	46.711827398394	1.002
17	358411	46.731827398394	1.002
17	358427	46.751827398394	1.002
17	358965	46.771827398394	1.002
17	359160	46.791827398394	1.002
17	359325	46.811827398394	1.002
17	359335	46.831827398394	1.002
17	359351	46.851827398394	1.002
17	359905	46.871827398394	1.002
17	360100	46.891827398394	1.002
17	360265	46.911827398394	1.002
17	360275	46.931827398394	1.002
17	360291	46.951827398394	1.002
17	360845	46.971827398394	1.002
17	361040	46.991827398394	1.002
17	361205	47.011827398394	1.002
17	361215	47.031827398394	1.002
17	361231	47.051827398394	1.002
17	361774	47.071827398394	1.002
17	361969	47.091827398394	1.002
17	362134	47.111827398394	1.002
17	362144	47.131827398394	1.002
17	362160	47.151827398394	1.002
17	362719	47.171827398394	1.002
17	362914	47.191827398394	1.002
17	363079	47.211827398394	1.002
17	363089	47.231827398394	1.002
17	363105	47.251827398394	1.002
17	363659	47.271827398394	1.002
17	363854	47.291827398394	1.002
17	364019	47.311827398394	1.002
17	364029	47.331827398394	1.002
17	364045	47.351827398394	1.002
17	364604	47.371827398394	1.002
17	364799	47.391827398394	1.002
17	364964	47.411827398394	1.002
17	364974	47.431827398394	1.002
17	364990	47.451827398394	1.002
17	365522	47.471827398394	1.002
17	365717	47.491827398394	1.002
17	365882	47.511827398394	1.002
17	365892	47.531827398394	1.002
17	365908	47.551827398394	1.002
17	366451	47.571827398394	1.002
17	366646	47.591827398394	1.002
17	366811	47.611827398394	1.002
17	366821	47.631827398394	1.002
17	366837	47.651827398394	1.002
17	367380	47.671827398394	1.002
17	367575	47.691827398394	1.002
[...]
14	340775	44.800253279723	0.002
14	340802	44.850253279723	0.001
14	341693	44.900253279723	0.002
14	341720	44.950253279723	0.001
14	342601	45.000253279723	0.002
14	342628	45.050253279723	0.001
14	343541	45.100253279723	0.002
14	343568	45.150253279723	0.001
14	344459	45.200253279723	0.002
14	344486	45.250253279723	0.001
14	345393	45.300253279723	0.002
14	345420	45.350253279723	0.001
14	346327	45.400253279723	0.002
14	346354	45.450253279723	0.001
14	347256	45.500253279723	0.002
14	347283	45.550253279723	0.001
14	348190	45.600253279723	0.002
14	348217	45.650253279723	0.001
14	349135	45.700253279723	0.002
14	349162	45.750253279723	0.001
14	350059	45.800253279723	0.002
14	350086	45.850253279723	0.001
14	350988	45.900253279723	0.002
14	351015	45.950253279723	0.001
14	351906	46.000253279723	0.002
14	351933	46.050253279723	0.001
14	352819	46.100253279723	0.002
14	352846	46.150253279723	0.001
14	353748	46.200253279723	0.002
14	353775	46.250253279723	0.001
14	354677	46.300253279723	0.002
14	354704	46.350253279723	0.001
14	355622	46.400253279723	0.002
14	355649	46.450253279723	0.001
14	356535	46.500253279723	0.002
14	356562	46.550253279723	0.001
14	357469	46.600253279723	0.002
14	357496	46.650253279723	0.001
14	358398	46.700253279723	0.002
14	358425	46.750253279723	0.001
14	359322	46.800253279723	0.002
14	359349	46.850253279723	0.001
14	360262	46.900253279723	0.002
14	360289	46.950253279723	0.001
14	361202	47.000253279723	0.002
14	361229	47.050253279723	0.001
14	362131	47.100253279723	0.002
14	362158	47.150253279723	0.001
14	363076	47.200253279723	0.002
14	363103	47.250253279723	0.001
14	364016	47.300253279723	0.002
14	364043	47.350253279723	0.001
14	364961	47.400253279723	0.002
14	364988	47.450253279723	0.001
14	365879	47.500253279723	0.002
14	365906	47.550253279723	0.001
14	366808	47.600253279723	0.002
14	366835	47.650253279723	0.001
14	367737	47.700253279723	0.002
14	367764	47.750253279723	0.001
14	368666	47.800253279723	0.002
14	368693	47.850253279723	0.001
14	369595	47.900253279723	0.002
14	369622	47.950253279723	0.001
14	370497	48.000253279723	0.002
14	370524	48.050253279723	0.001
14	371437	48.100253279723	0.002
14	371464	48.150253279723	0.001
14	372355	48.200253279723	0.002
14	372382	48.250253279723	0.001
14	373268	48.300253279723	0.002
14	373295	48.350253279723	0.001
14	374197	48.400253279723	0.002
14	374224	48.450253279723	0.001
14	375121	48.500253279723	0.002
14	375148	48.550253279723	0.001
14	376045	48.600253279723	0.002
14	376072	48.650253279723	0.001
14	376968	48.700253279723	0.002
14	376995	48.750253279723	0.001
14	377886	48.800253279723	0.002
14	377913	48.850253279723	0.001
14	378799	48.900253279723	0.002
14	378826	48.950253279723	0.001
14	379728	49.000253279723	0.002
14	379755	49.050253279723	0.001
14	380673	49.100253279723	0.002
14	380700	49.150253279723	0.001
14	381564	49.200253279723	0.002
14	381591	49.250253279723	0.001
14	382504	49.300253279723	0.002
14	382531	49.350253279723	0.001
14	383449	49.400253279723	0.002
14	383476	49.450253279723	0.001
14	384362	49.500253279723	0.002
14	384389	49.550253279723	0.001
14	385302	49.600253279723	0.002
14	385329	49.650253279723	0.001
14	386231	49.700253279723	0.002
14	386258	49.750253279723	0.001
14	387171	49.800253279723	0.002
14	387198	49.850253279723	0.001
14	388111	49.900253279723	0.002
14	388138	49.950253279723	0.001
14	389051	50.000253279723	0.002
14	389078	50.050253279723	0.001
14	389964	50.100253279723	0.002
14	389991	50.150253279723	0.001
14	390888	50.200253279723	0.002
14	390915	50.250253279723	0.001
14	391828	50.300253279723	0.002
14	391855	50.350253279723	0.001
14	392762	50.400253279723	0.002
14	392789	50.450253279723	0.001
14	393691	50.500253279723	0.002
14	393718	50.550253279723	0.001
14	394615	50.600253279723	0.002
14	394642	50.650253279723	0.001
14	395555	50.700253279723	0.002
14	395582	50.750253279723	0.001
14	396468	50.800253279723	0.002
14	396495	50.850253279723	0.001
14	397408	50.900253279723	0.002
14	397435	50.950253279723	0.001
14	398348	51.000253279723	0.002
14	398375	51.050253279723	0.001
14	399293	51.100253279723	0.002
14	399320	51.150253279723	0.001
14	400227	51.200253279723	0.002
14	400254	51.250253279723	0.001
14	401188	51.300253279723	0.002
14	401215	51.350253279723	0.001
14	402112	51.400253279723	0.002
14	402139	51.450253279723	0.001
14	403052	51.500253279723	0.002
14	403079	51.550253279723	0.001
14	403981	51.600253279723	0.002
14	404008	51.650253279723	0.001
14	404926	51.700253279723	0.002
14	404953	51.750253279723	0.001
14	405855	51.800253279723	0.002
14	405882	51.850253279723	0.001
14	406784	51.900253279723	0.002
14	406811	51.950253279723	0.001
14	407708	52.000253279723	0.002
14	407735	52.050253279723	0.001
14	408653	52.100253279723	0.002
14	408680	52.150253279723	0.001
14	409571	52.200253279723	0.002
14	409598	52.250253279723	0.001
14	410511	52.300253279723	0.002
14	410538	52.350253279723	0.001
14	411472	52.400253279723	0.002
14	411499	52.450253279723	0.001
14	412385	52.500253279723	0.002
14	412412	52.550253279723	0.001
14	413298	52.600253279723	0.002
14	413325	52.650253279723	0.001
14	414216	52.700253279723	0.002
14	414243	52.750253279723	0.001
14	415129	52.800253279723	0.002
14	415156	52.850253279723	0.001
14	416085	52.900253279723	0.002
14	416112	52.950253279723	0.001
14	417003	53.000253279723	0.002
14	417030	53.050253279723	0.001
14	417948	53.100253279723	0.002
14	417975	53.150253279723	0.001
14	418877	53.200253279723	0.002
14	418904	53.250253279723	0.001
14	419785	53.300253279723	0.002
14	419812	53.350253279723	0.001
14	420714	53.400253279723	0.002
14	420741	53.450253279723	0.001
14	421643	53.500253279723	0.002
14	421670	53.550253279723	0.001
14	422567	53.600253279723	0.002
14	422594	53.650253279723	0.001
14	423496	53.700253279723	0.002
14	423523	53.750253279723	0.001
14	424414	53.800253279723	0.002
14	424441	53.850253279723	0.001
14	425332	53.900253279723	0.002
14	425359	53.950253279723	0.001
14	426234	54.000253279723	0.002
14	426261	54.050253279723	0.001
14	427168	54.100253279723	0.002
14	427195	54.150253279723	0.001
14	428097	54.200253279723	0.002
14	428124	54.250253279723	0.001
14	429010	54.300253279723	0.002
14	429037	54.350253279723	0.001
14	429934	54.400253279723	0.002
14	429961	54.450253279723	0.001
14	430863	54.500253279723	0.002
14	430890	54.550253279723	0.001
14	431781	54.600253279723	0.002
14	431808	54.650253279723	0.001
14	432715	54.700253279723	0.002
14	432742	54.750253279723	0.001
14	433639	54.800253279723	0.002
14	433666	54.850253279723	0.001
14	434552	54.900253279723	0.002
14	434579	54.950253279723	0.001
14	435470	55.000253279723	0.002
14	435497	55.050253279723	0.001
14	436399	55.100253279723	0.002
14	436426	55.150253279723	0.001
14	437301	55.200253279723	0.002
14	437328	55.250253279723	0.001
14	438214	55.300253279723	0.002
14	438241	55.350253279723	0.001
14	439122	55.400253279723	0.002
14	439149	55.450253279723	0.001
14	440067	55.500253279723	0.002
14	440094	55.550253279723	0.001
14	440996	55.600253279723	0.002
14	441023	55.650253279723	0.001
14	441914	55.700253279723	0.002
14	441941	55.750253279723	0.001
14	442843	55.800253279723	0.002
14	442870	55.850253279723	0.001
14	443761	55.900253279723	0.002
14	443788	55.950253279723	0.001
14	444695	56.000253279723	0.002
14	444722	56.050253279723	0.001
14	445635	56.100253279723	0.002
14	445662	56.150253279723	0.001
14	446548	56.200253279723	0.002
14	446575	56.250253279723	0.001
14	447456	56.300253279723	0.002
14	447483	56.350253279723	0.001
14	448401	56.400253279723	0.002
14	448428	56.450253279723	0.001
14	449335	56.500253279723	0.002
14	449362	56.550253279723	0.001
14	450248	56.600253279723	0.002
14	450275	56.650253279723	0.001
14	451172	56.700253279723	0.002
14	451199	56.750253279723	0.001
14	452069	56.800253279723	0.002
14	452096	56.850253279723	0.001
14	452998	56.900253279723	0.002
14	453025	56.950253279723	0.001
14	453922	57.000253279723	0.002
14	453949	57.050253279723	0.001
14	454856	57.100253279723	0.002
14	454883	57.150253279723	0.001
14	455779	57.200253279723	0.002
14	455806	57.250253279723	0.001
14	456729	57.300253279723	0.002
14	456756	57.350253279723	0.001
14	457658	57.400253279723	0.002
14	457685	57.450253279723	0.001
14	458576	57.500253279723	0.002
14	458603	57.550253279723	0.001
14	459505	57.600253279723	0.002
14	459532	57.650253279723	0.001
14	460434	57.700253279723	0.002
14	460461	57.750253279723	0.001
14	461363	57.800253279723	0.002
14	461390	57.850253279723	0.001
14	462276	57.900253279723	0.002
14	462303	57.950253279723	0.001
14	463189	58.000253279723	0.002
14	463216	58.050253279723	0.001
14	464102	58.100253279723	0.002
14	464129	58.150253279723	0.001
14	465015	58.200253279723	0.002
14	465042	58.250253279723	0.001
14	465949	58.300253279723	0.002
14	465976	58.350253279723	0.001
14	466873	58.400253279723	0.002
14	466900	58.450253279723	0.001
14	467818	58.500253279723	0.002
14	467845	58.550253279723	0.001
14	468758	58.600253279723	0.002
14	468785	58.650253279723	0.001
14	469698	58.700253279723	0.002
14	469725	58.750253279723	0.001
14	470622	58.800253279723	0.002
14	470649	58.850253279723	0.001
14	471583	58.900253279723	0.002
14	471610	58.950253279723	0.001
14	472485	59.000253279723	0.002
14	472512	59.050253279723	0.001
14	473414	59.100253279723	0.002
14	473441	59.150253279723	0.001
14	474343	59.200253279723	0.002
14	474370	59.250253279723	0.001
14	475261	59.300253279723	0.002
14	475288	59.350253279723	0.001
14	476179	59.400253279723	0.002
14	476206	59.450253279723	0.001
14	477097	59.500253279723	0.002
14	477124	59.550253279723	0.001
14	478026	59.600253279723	0.002
14	478053	59.650253279723	0.001
14	478949	59.700253279723	0.002
14	478976	59.750253279723	0.001
14	479878	59.800253279723	0.002
14	479905	59.850253279723	0.001
14	480807	59.900253279723	0.002
14	480834	59.950253279723	0.001
14	481731	60.000253279723	0.002
14	481758	60.050253279723	0.001
14	482665	60.100253279723	0.002
14	482692	60.150253279723	0.001
14	483588	60.200253279723	0.002
14	483615	60.250253279723	0.001
14	484528	60.300253279723	0.002
14	484555	60.350253279723	0.001
14	485446	60.400253279723	0.002
14	485473	60.450253279723	0.001
14	486364	60.500253279723	0.002
14	486391	60.550253279723	0.001
14	487298	60.600253279723	0.002
14	487325	60.650253279723	0.001
14	488222	60.700253279723	0.002
14	488249	60.750253279723	0.001
14	489151	60.800253279723	0.002
14	489178	60.850253279723	0.001
14	490096	60.900253279723	0.002
14	490123	60.950253279723	0.001
14	491036	61.000253279723	0.002
14	491063	61.050253279723	0.001
14	491960	61.100253279723	0.002
14	491987	61.150253279723	0.001
14	492921	61.200253279723	0.002
14	492948	61.250253279723	0.001
14	493834	61.300253279723	0.002
14	493861	61.350253279723	0.001
14	494747	61.400253279723	0.002
14	494774	61.450253279723	0.001
14	495670	61.500253279723	0.002
14	495697	61.550253279723	0.001
14	496588	61.600253279723	0.002
14	496615	61.650253279723	0.001
14	497527	61.700253279723	0.002
14	497549	61.750253279723	0.001
14	498172	61.800253279723	0.002
14	498194	61.850253279723	0.001
14	498808	61.900253279723	0.002
14	498830	61.950253279723	0.001
14	499453	62.000253279723	0.002
14	499475	62.050253279723	0.001
14	500089	62.100253279723	0.002
14	500111	62.150253279723	0.001
14	500716	62.200253279723	0.002
14	500738	62.250253279723	0.001
14	501361	62.300253279723	0.002
14	501383	62.350253279723	0.001
14	501997	62.400253279723	0.002
14	502019	62.450253279723	0.001
14	502646	62.500253279723	0.002
14	502668	62.550253279723	0.001
14	503291	62.600253279723	0.002
14	503313	62.650253279723	0.001
14	503936	62.700253279723	0.002
14	503958	62.750253279723	0.001
14	504581	62.800253279723	0.002
14	504603	62.850253279723	0.001
14	505226	62.900253279723	0.002
14	505248	62.950253279723	0.001
14	505871	63.000253279723	0.002
14	505893	63.050253279723	0.001
14	506507	63.100253279723	0.002
14	506529	63.150253279723	0.001
14	507152	63.200253279723	0.002
14	507174	63.250253279723	0.001
14	507797	63.300253279723	0.002
14	507819	63.350253279723	0.001
14	508429	63.400253279723	0.002
14	508451	63.450253279723	0.001
14	509087	63.500253279723	0.002
14	509109	63.550253279723	0.001
14	509727	63.600253279723	0.002
14	509749	63.650253279723	0.001
14	510372	63.700253279723	0.002
14	510394	63.750253279723	0.001
14	511008	63.800253279723	0.002
14	511030	63.850253279723	0.001
14	511653	63.900253279723	0.002
14	511675	63.950253279723	0.001
14	512276	64.000253279723	0.002
14	512298	64.050253279723	0.001
14	512934	64.100253279723	0.002
14	512956	64.150253279723	0.001
14	513566	64.200253279723	0.002
14	513588	64.250253279723	0.001
14	514198	64.300253279723	0.002
14	514220	64.350253279723	0.001
14	514834	64.400253279723	0.002
14	514856	64.450253279723	0.001
14	515479	64.500253279723	0.002
14	515501	64.550253279723	0.001
14	516092	64.600253279723	0.002
14	516109	64.650253279723	0.001
14	516486	64.700253279723	0.002
14	516503	64.750253279723	0.001
14	516880	64.800253279723	0.002
14	516897	64.850253279723	0.001
14	517267	64.900253279723	0.002
14	517284	64.950253279723	0.001
14	517661	65.000253279723	0.002
14	517678	65.050253279723	0.001
14	518065	65.100253279723	0.002
14	518082	65.150253279723	0.001
14	518469	65.200253279723	0.002
14	518486	65.250253279723	0.001
14	518863	65.300253279723	0.002
14	518880	65.350253279723	0.001
14	519267	65.400253279723	0.002
14	519284	65.450253279723	0.001
14	519671	65.500253279723	0.002
14	519688	65.550253279723	0.001
14	520075	65.600253279723	0.002
14	520092	65.650253279723	0.001
14	520489	65.700253279723	0.002
14	520506	65.750253279723	0.001
14	520886	65.800253279723	0.002
14	520903	65.850253279723	0.001
14	521300	65.900253279723	0.002
14	521317	65.950253279723	0.001
14	521697	66.000253279723	0.002
14	521714	66.050253279723	0.001
14	522111	66.100253279723	0.002
14	522128	66.150253279723	0.001
14	522515	66.200253279723	0.002
14	522532	66.250253279723	0.001
14	522919	66.300253279723	0.002
14	522936	66.350253279723	0.001
14	523313	66.400253279723	0.002
14	523330	66.450253279723	0.001
14	523727	66.500253279723	0.002
14	523744	66.550253279723	0.001
14	524121	66.600253279723	0.002
14	524138	66.650253279723	0.001
14	524525	66.700253279723	0.002
14	524542	66.750253279723	0.001
14	524922	66.800253279723	0.002
14	524939	66.850253279723	0.001
14	525326	66.900253279723	0.002
14	525343	66.950253279723	0.001
14	525730	67.000253279723	0.002
14	525747	67.050253279723	0.001
14	526134	67.100253279723	0.002
14	526151	67.150253279723	0.001
14	526538	67.200253279723	0.002
14	526555	67.250253279723	0.001
14	526942	67.300253279723	0.002
14	526959	67.350253279723	0.001
14	527336	67.400253279723	0.002
14	527353	67.450253279723	0.001
14	527730	67.500253279723	0.002
14	527747	67.550253279723	0.001
14	528143	67.600253279723	0.002
14	528155	67.650253279723	0.001
14	528353	67.700253279723	0.002
14	528365	67.750253279723	0.001
14	528563	67.800253279723	0.002
14	528575	67.850253279723	0.001
14	528780	67.900253279723	0.002
14	528792	67.950253279723	0.001
14	528997	68.000253279723	0.002
14	529009	68.050253279723	0.001
14	529207	68.100253279723	0.002
14	529219	68.150253279723	0.001
14	529424	68.200253279723	0.002
14	529436	68.250253279723	0.001
14	529634	68.300253279723	0.002
14	529646	68.350253279723	0.001
14	529851	68.400253279723	0.002
14	529863	68.450253279723	0.001
14	530068	68.500253279723	0.002
14	530080	68.550253279723	0.001
14	530285	68.600253279723	0.002
14	530297	68.650253279723	0.001
14	530502	68.700253279723	0.002
14	530514	68.750253279723	0.001
14	530719	68.800253279723	0.002
14	530731	68.850253279723	0.001
14	530936	68.900253279723	0.002
14	530948	68.950253279723	0.001
14	531153	69.000253279723	0.002
14	531165	69.050253279723	0.001
14	531370	69.100253279723	0.002
14	531382	69.150253279723	0.001
14	531587	69.200253279723	0.002
14	531599	69.250253279723	0.001
14	531804	69.300253279723	0.002
14	531816	69.350253279723	0.001
14	532021	69.400253279723	0.002
14	532033	69.450253279723	0.001
14	532231	69.500253279723	0.002
14	532243	69.550253279723	0.001
14	532448	69.600253279723	0.002
14	532460	69.650253279723	0.001
14	532658	69.700253279723	0.002
14	532670	69.750253279723	0.001
14	532875	69.800253279723	0.002
14	532887	69.850253279723	0.001
14	533092	69.900253279723	0.002
14	533104	69.950253279723	0.001
14	533309	70.000253279723	0.002
14	533321	70.050253279723	0.001
14	533526	70.100253279723	0.002
14	533538	70.150253279723	0.001
14	533743	70.200253279723	0.002
14	533755	70.250253279723	0.001
14	533960	70.300253279723	0.002
14	533972	70.350253279723	0.001
14	534170	70.400253279723	0.002
14	534182	70.450253279723	0.001
14	534380	70.500253279723	0.002
14	534392	70.550253279723	0.001
14	534590	70.600253279723	0.002
14	534602	70.650253279723	0.001
14	534807	70.700253279723	0.002
14	534813	70.750253279723	0.001
14	534887	70.800253279723	0.002
14	534893	70.850253279723	0.001
14	534967	70.900253279723	0.002
14	534973	70.950253279723	0.001
14	535047	71.000253279723	0.002
14	535053	71.050253279723	0.001
14	535127	71.100253279723	0.002
14	535133	71.150253279723	0.001
14	535207	71.200253279723	0.002
14	535213	71.250253279723	0.001
14	535287	71.300253279723	0.002
14	535293	71.350253279723	0.001
14	535367	71.400253279723	0.002
14	535373	71.450253279723	0.001
14	535447	71.500253279723	0.002
14	535453	71.550253279723	0.001
14	535527	71.600253279723	0.002
14	535533	71.650253279723	0.001
14	535607	71.700253279723	0.002
14	535613	71.750253279723	0.001
14	535687	71.800253279723	0.002
14	535693	71.850253279723	0.001
14	535767	71.900253279723	0.002
14	535773	71.950253279723	0.001
14	535847	72.000253279723	0.002
14	535853	72.050253279723	0.001
14	535927	72.100253279723	0.002
14	535933	72.150253279723	0.001
14	536007	72.200253279723	0.002
14	536013	72.250253279723	0.001
14	536087	72.300253279723	0.002
14	536093	72.350253279723	0.001
14	536167	72.400253279723	0.002
14	536173	72.450253279723	0.001
14	536247	72.500253279723	0.002
14	536253	72.550253279723	0.001
14	536327	72.600253279723	0.002
14	536333	72.650253279723	0.001
14	536407	72.700253279723	0.002
14	536413	72.750253279723	0.001
14	536487	72.800253279723	0.002
14	536493	72.850253279723	0.001
14	536567	72.900253279723	0.002
14	536573	72.950253279723	0.001
14	536647	73.000253279723	0.002
14	536653	73.050253279723	0.001
14	536727	73.100253279723	0.002
14	536733	73.150253279723	0.001
14	536807	73.200253279723	0.002
14	536813	73.250253279723	0.001
14	536887	73.300253279723	0.002
14	536893	73.350253279723	0.001
14	536967	73.400253279723	0.002
14	536973	73.450253279723	0.001
14	537047	73.500253279723	0.002
14	537053	73.550253279723	0.001
14	537126	73.600253279723	0.002
14	537127	73.650253279723	0.001
14	537128	73.700253279723	0.002
14	537129	73.750253279723	0.001
14	537130	73.800253279723	0.002
14	537131	73.850253279723	0.001
14	537132	73.900253279723	0.002
14	537133	73.950253279723	0.001
14	537134	74.000253279723	0.002
14	537135	74.050253279723	0.001
14	537136	74.100253279723	0.002
14	537137	74.150253279723	0.001
14	537138	74.200253279723	0.002
14	537139	74.250253279723	0.001
14	537140	74.300253279723	0.002
14	537141	74.350253279723	0.001
14	537142	74.400253279723	0.002
14	537143	74.450253279723	0.001
14	537144	74.500253279723	0.002
14	537145	74.550253279723	0.001
14	537146	74.600253279723	0.002
14	537147	74.650253279723	0.001
14	537148	74.700253279723	0.002
14	537149	74.750253279723	0.001
14	537150	74.800253279723	0.002
14	537151	74.850253279723	0.001
14	537152	74.900253279723	0.002
14	537153	74.950253279723	0.001
14	537154	75.000253279723	0.002
14	537155	75.050253279723	0.001
14	537156	75.100253279723	0.002
14	537157	75.150253279723	0.001
14	537158	75.200253279723	0.002
14	537159	75.250253279723	0.001
14	537160	75.300253279723	0.002
14	537161	75.350253279723	0.001
14	537162	75.400253279723	0.002
14	537163	75.450253279723	0.001
14	537164	75.500253279723	0.002
14	537165	75.550253279723	0.001
14	537166	75.600253279723	0.002
14	537167	75.650253279723	0.001
14	537168	75.700253279723	0.002
14	537169	75.750253279723	0.001
14	537170	75.800253279723	0.002
14	537171	75.850253279723	0.001
14	537172	75.900253279723	0.002
14	537173	75.950253279723	0.001
