version 2
run VoIP-50ms_440B-4-20160923-14:16:19-14729
attr configname VoIP-50ms_440B
attr datetime 20160923-14:16:19
attr experiment VoIP-50ms_440B
attr inifile omnetpp.ini
attr iterationvars ""
attr iterationvars2 $repetition=4
attr measurement ""
attr network SymScenerio
attr processid 14729
attr repetition 4
attr replication #4
attr resultdir results
attr runnumber 4
attr seedset 4
param **.coreDebug false
param **.debug false
param *.**.nic.mac1609_4.bitrate 18Mbps
param *.**.nic.mac1609_4.txPower 20mW
param *.**.nic.mac1609_4.useServiceChannel true
param *.**.nic.phy80211p.analogueModels "xmldoc(\"config.xml\")"
param *.**.nic.phy80211p.decider "xmldoc(\"config.xml\")"
param *.**.nic.phy80211p.sensitivity -89dBm
param *.**.nic.phy80211p.thermalNoise -110dBm
param *.**.nic.phy80211p.usePropagationDelay true
param *.**.nic.phy80211p.useThermalNoise true
param *.annotations.draw false
param *.connectionManager.alpha 2.0
param *.connectionManager.carrierFrequency "5.890e9 Hz"
param *.connectionManager.pMax 20mW
param *.connectionManager.sat -89dBm
param *.connectionManager.sendDirect true
param *.manager.autoShutdown true
param *.manager.host "\"localhost\""
param *.manager.launchConfig "xmldoc(\"map.launchd.xml\")"
param *.manager.margin 25
param *.manager.moduleDisplayString "\"\""
param *.manager.moduleName "\"node\""
param *.manager.moduleType "\"symulacja.veins.nodes.Car\""
param *.manager.port 9999
param *.manager.updateInterval 0.1s
param *.node[*].appl.beaconInterval 1s
param *.node[*].appl.beaconPriority 3
param *.node[*].appl.dataOnSch false
param *.node[*].appl.dataPriority 2
param *.node[*].appl.debug false
param *.node[*].appl.maxOffset 0.005s
param *.node[*].appl.sendBeacons false
param *.node[*].appl.sendData true
param *.node[*].appl.sendVoIP true
param *.node[*].appl.voipInterval 0.050s
param *.node[*].appl.voipLengthBits 3520bit
param *.node[*].appl.voipOnSch true
param *.node[*].appl.voipPriority 3
param *.node[*].applType "\"Sym11p\""
param *.node[*].veinsmobility.x 0
param *.node[*].veinsmobility.y 0
param *.node[*].veinsmobility.z 1.895
param *.node[*].veinsmobilityType "\"symulacja.veins.modules.mobility.traci.TraCIMobility\""
param *.playgroundSizeX 9000m
param *.playgroundSizeY 9000m
param *.playgroundSizeZ 50m
param *.rsu[*].appl.beaconInterval 1s
param *.rsu[*].appl.beaconPriority 3
param *.rsu[*].appl.dataOnSch false
param *.rsu[*].appl.dataPriority 2
param *.rsu[*].appl.debug false
param *.rsu[*].appl.headerLength "256 bit"
param *.rsu[*].appl.maxOffset 0.005s
param *.rsu[*].appl.sendBeacons false
param *.rsu[*].appl.sendData false
param *.rsu[*].appl.sendVoIP false
param *.rsu[*].applType "\"SymRSU11p\""
param *.rsu[0].mobility.x 2160
param *.rsu[0].mobility.y 3100
param *.rsu[0].mobility.z 3
param *.world.use2D false
param *.world.useTorus false

vector 14  SymScenerio.rsu[0].nic.mac1609_4  "Interwały kanałów"  ETV
vector 23  SymScenerio.node[0].veinsmobility  posx  ETV
vector 24  SymScenerio.node[0].veinsmobility  posy  ETV
vector 22  SymScenerio.node[0].nic.mac1609_4  "Interwały kanałów"  ETV
vector 25  SymScenerio.node[0].veinsmobility  speed  ETV
vector 26  SymScenerio.node[0].veinsmobility  acceleration  ETV
vector 27  SymScenerio.node[0].veinsmobility  co2emission  ETV
vector 15  SymScenerio.node[0].appl  "TX Packets"  ETV
vector 16  SymScenerio.node[0].appl  "TX Total"  ETV
vector 17  SymScenerio.node[0].appl  Pakietyzacja  ETV
vector 5  SymScenerio.rsu[0].appl  nodeALL:vector  ETV
attr source  nodeALL
attr title  "Opoznienia ALL, vector"
vector 9  SymScenerio.rsu[0].appl  "RX Packet"  ETV
vector 0  SymScenerio.rsu[0].appl  node0:vector  ETV
attr source  node0
attr title  "Opoznienia node0, vector"
vector 36  SymScenerio.node[1].veinsmobility  posx  ETV
vector 37  SymScenerio.node[1].veinsmobility  posy  ETV
vector 35  SymScenerio.node[1].nic.mac1609_4  "Interwały kanałów"  ETV
vector 38  SymScenerio.node[1].veinsmobility  speed  ETV
vector 39  SymScenerio.node[1].veinsmobility  acceleration  ETV
vector 40  SymScenerio.node[1].veinsmobility  co2emission  ETV
vector 28  SymScenerio.node[1].appl  "TX Packets"  ETV
vector 29  SymScenerio.node[1].appl  "TX Total"  ETV
vector 30  SymScenerio.node[1].appl  Pakietyzacja  ETV
vector 1  SymScenerio.rsu[0].appl  node1:vector  ETV
attr source  node1
attr title  "Opoznienia node1, vector"
vector 49  SymScenerio.node[2].veinsmobility  posx  ETV
vector 50  SymScenerio.node[2].veinsmobility  posy  ETV
vector 48  SymScenerio.node[2].nic.mac1609_4  "Interwały kanałów"  ETV
vector 51  SymScenerio.node[2].veinsmobility  speed  ETV
vector 52  SymScenerio.node[2].veinsmobility  acceleration  ETV
vector 53  SymScenerio.node[2].veinsmobility  co2emission  ETV
vector 41  SymScenerio.node[2].appl  "TX Packets"  ETV
vector 42  SymScenerio.node[2].appl  "TX Total"  ETV
vector 43  SymScenerio.node[2].appl  Pakietyzacja  ETV
vector 2  SymScenerio.rsu[0].appl  node2:vector  ETV
attr source  node2
attr title  "Opoznienia node2, vector"
vector 62  SymScenerio.node[3].veinsmobility  posx  ETV
vector 63  SymScenerio.node[3].veinsmobility  posy  ETV
vector 61  SymScenerio.node[3].nic.mac1609_4  "Interwały kanałów"  ETV
vector 64  SymScenerio.node[3].veinsmobility  speed  ETV
vector 65  SymScenerio.node[3].veinsmobility  acceleration  ETV
vector 66  SymScenerio.node[3].veinsmobility  co2emission  ETV
vector 54  SymScenerio.node[3].appl  "TX Packets"  ETV
vector 55  SymScenerio.node[3].appl  "TX Total"  ETV
vector 56  SymScenerio.node[3].appl  Pakietyzacja  ETV
vector 3  SymScenerio.rsu[0].appl  node3:vector  ETV
attr source  node3
attr title  "Opoznienia node3, vector"
vector 75  SymScenerio.node[4].veinsmobility  posx  ETV
vector 76  SymScenerio.node[4].veinsmobility  posy  ETV
vector 74  SymScenerio.node[4].nic.mac1609_4  "Interwały kanałów"  ETV
vector 77  SymScenerio.node[4].veinsmobility  speed  ETV
vector 78  SymScenerio.node[4].veinsmobility  acceleration  ETV
vector 79  SymScenerio.node[4].veinsmobility  co2emission  ETV
vector 67  SymScenerio.node[4].appl  "TX Packets"  ETV
vector 68  SymScenerio.node[4].appl  "TX Total"  ETV
vector 69  SymScenerio.node[4].appl  Pakietyzacja  ETV
vector 4  SymScenerio.rsu[0].appl  node4:vector  ETV
attr source  node4
attr title  "Opoznienia node4, vector"
17	37	0.798864412168	1.002
17	42	0.848864412168	1.002
17	72	0.898864412168	1.002
17	77	0.948864412168	1.002
17	107	0.998864412168	1.002
17	112	1.048864412168	1.002
17	142	1.098864412168	1.002
17	147	1.148864412168	1.002
17	177	1.198864412168	1.002
17	182	1.248864412168	1.002
17	212	1.298864412168	1.002
17	217	1.348864412168	1.002
17	247	1.398864412168	1.002
17	252	1.448864412168	1.002
17	282	1.498864412168	1.002
17	287	1.548864412168	1.002
17	317	1.598864412168	1.002
17	322	1.648864412168	1.002
17	352	1.698864412168	1.002
17	357	1.748864412168	1.002
17	387	1.798864412168	1.002
17	392	1.848864412168	1.002
17	422	1.898864412168	1.002
17	427	1.948864412168	1.002
17	457	1.998864412168	1.002
17	462	2.048864412168	1.002
17	492	2.098864412168	1.002
17	497	2.148864412168	1.002
17	527	2.198864412168	1.002
17	532	2.248864412168	1.002
17	562	2.298864412168	1.002
17	567	2.348864412168	1.002
17	597	2.398864412168	1.002
17	602	2.448864412168	1.002
17	632	2.498864412168	1.002
17	637	2.548864412168	1.002
17	667	2.598864412168	1.002
17	672	2.648864412168	1.002
17	702	2.698864412168	1.002
17	707	2.748864412168	1.002
17	737	2.798864412168	1.002
17	742	2.848864412168	1.002
17	772	2.898864412168	1.002
17	777	2.948864412168	1.002
17	807	2.998864412168	1.002
17	812	3.048864412168	1.002
17	842	3.098864412168	1.002
17	847	3.148864412168	1.002
17	890	3.198864412168	1.002
17	896	3.248864412168	1.002
17	939	3.298864412168	1.002
17	945	3.348864412168	1.002
17	988	3.398864412168	1.002
17	994	3.448864412168	1.002
17	1037	3.498864412168	1.002
17	1043	3.548864412168	1.002
17	1086	3.598864412168	1.002
17	1092	3.648864412168	1.002
17	1135	3.698864412168	1.002
17	1141	3.748864412168	1.002
17	1205	3.798864412168	1.002
17	1213	3.848864412168	1.002
17	1289	3.898864412168	1.002
17	1297	3.948864412168	1.002
17	1373	3.998864412168	1.002
17	1381	4.048864412168	1.002
17	1464	4.098864412168	1.002
17	1472	4.148864412168	1.002
17	1555	4.198864412168	1.002
17	1563	4.248864412168	1.002
17	1646	4.298864412168	1.002
17	1654	4.348864412168	1.002
17	1737	4.398864412168	1.002
17	1745	4.448864412168	1.002
17	1828	4.498864412168	1.002
17	1836	4.548864412168	1.002
17	1919	4.598864412168	1.002
17	1927	4.648864412168	1.002
17	2003	4.698864412168	1.002
17	2011	4.748864412168	1.002
17	2094	4.798864412168	1.002
17	2102	4.848864412168	1.002
17	2178	4.898864412168	1.002
17	2186	4.948864412168	1.002
17	2269	4.998864412168	1.002
17	2277	5.048864412168	1.002
17	2360	5.098864412168	1.002
17	2368	5.148864412168	1.002
17	2451	5.198864412168	1.002
17	2459	5.248864412168	1.002
17	2542	5.298864412168	1.002
17	2550	5.348864412168	1.002
17	2626	5.398864412168	1.002
17	2634	5.448864412168	1.002
17	2717	5.498864412168	1.002
17	2725	5.548864412168	1.002
17	2808	5.598864412168	1.002
17	2816	5.648864412168	1.002
17	2892	5.698864412168	1.002
17	2900	5.748864412168	1.002
17	2983	5.798864412168	1.002
17	2991	5.848864412168	1.002
17	3074	5.898864412168	1.002
17	3082	5.948864412168	1.002
17	3158	5.998864412168	1.002
17	3166	6.048864412168	1.002
17	3242	6.098864412168	1.002
17	3250	6.148864412168	1.002
17	3358	6.198864412168	1.002
17	3367	6.248864412168	1.002
17	3475	6.298864412168	1.002
17	3484	6.348864412168	1.002
17	3592	6.398864412168	1.002
17	3601	6.448864412168	1.002
17	3699	6.498864412168	1.002
17	3708	6.548864412168	1.002
17	3816	6.598864412168	1.002
17	3825	6.648864412168	1.002
17	3933	6.698864412168	1.002
17	3944	6.748864412168	1.002
17	4084	6.798864412168	1.002
17	4095	6.848864412168	1.002
17	4238	6.898864412168	1.002
17	4249	6.948864412168	1.002
17	4409	6.998864412168	1.002
17	4420	7.048864412168	1.002
17	4580	7.098864412168	1.002
17	4591	7.148864412168	1.002
17	4741	7.198864412168	1.002
17	4752	7.248864412168	1.002
17	4912	7.298864412168	1.002
17	4923	7.348864412168	1.002
17	5073	7.398864412168	1.002
17	5084	7.448864412168	1.002
17	5244	7.498864412168	1.002
17	5255	7.548864412168	1.002
17	5405	7.598864412168	1.002
17	5416	7.648864412168	1.002
17	5566	7.698864412168	1.002
17	5577	7.748864412168	1.002
17	5727	7.798864412168	1.002
17	5738	7.848864412168	1.002
17	5888	7.898864412168	1.002
17	5899	7.948864412168	1.002
17	6049	7.998864412168	1.002
17	6060	8.048864412168	1.002
17	6210	8.098864412168	1.002
17	6221	8.148864412168	1.002
17	6371	8.198864412168	1.002
17	6382	8.248864412168	1.002
17	6532	8.298864412168	1.002
17	6543	8.348864412168	1.002
17	6703	8.398864412168	1.002
17	6714	8.448864412168	1.002
17	6864	8.498864412168	1.002
17	6875	8.548864412168	1.002
17	7035	8.598864412168	1.002
17	7046	8.648864412168	1.002
17	7189	8.698864412168	1.002
17	7200	8.748864412168	1.002
17	7350	8.798864412168	1.002
17	7361	8.848864412168	1.002
17	7511	8.898864412168	1.002
17	7522	8.948864412168	1.002
17	7672	8.998864412168	1.002
17	7683	9.048864412168	1.002
17	7833	9.098864412168	1.002
17	7844	9.148864412168	1.002
17	8028	9.198864412168	1.002
17	8040	9.248864412168	1.002
17	8224	9.298864412168	1.002
17	8236	9.348864412168	1.002
17	8453	9.398864412168	1.002
17	8467	9.448864412168	1.002
17	8702	9.498864412168	1.002
17	8716	9.548864412168	1.002
17	8955	9.598864412168	1.002
17	8969	9.648864412168	1.002
17	9217	9.698864412168	1.002
17	9231	9.748864412168	1.002
17	9470	9.798864412168	1.002
17	9484	9.848864412168	1.002
17	9732	9.898864412168	1.002
17	9746	9.948864412168	1.002
17	9994	9.998864412168	1.002
17	10008	10.048864412168	1.002
17	10256	10.098864412168	1.002
17	10270	10.148864412168	1.002
17	10509	10.198864412168	1.002
17	10523	10.248864412168	1.002
17	10771	10.298864412168	1.002
17	10785	10.348864412168	1.002
17	11033	10.398864412168	1.002
17	11047	10.448864412168	1.002
17	11286	10.498864412168	1.002
17	11300	10.548864412168	1.002
17	11539	10.598864412168	1.002
17	11553	10.648864412168	1.002
17	11779	10.698864412168	1.002
17	11793	10.748864412168	1.002
17	12041	10.798864412168	1.002
17	12055	10.848864412168	1.002
17	12303	10.898864412168	1.002
17	12317	10.948864412168	1.002
17	12565	10.998864412168	1.002
17	12579	11.048864412168	1.002
17	12818	11.098864412168	1.002
17	12832	11.148864412168	1.002
17	13080	11.198864412168	1.002
17	13094	11.248864412168	1.002
17	13333	11.298864412168	1.002
17	13347	11.348864412168	1.002
17	13582	11.398864412168	1.002
17	13596	11.448864412168	1.002
17	13844	11.498864412168	1.002
17	13858	11.548864412168	1.002
17	14106	11.598864412168	1.002
17	14120	11.648864412168	1.002
17	14368	11.698864412168	1.002
17	14382	11.748864412168	1.002
17	14630	11.798864412168	1.002
17	14644	11.848864412168	1.002
17	14879	11.898864412168	1.002
17	14893	11.948864412168	1.002
17	15141	11.998864412168	1.002
17	15155	12.048864412168	1.002
17	15394	12.098864412168	1.002
17	15408	12.148864412168	1.002
17	15702	12.198864412168	1.002
17	15717	12.248864412168	1.002
17	15995	12.298864412168	1.002
17	16010	12.348864412168	1.002
17	16304	12.398864412168	1.002
17	16319	12.448864412168	1.002
17	16598	12.498864412168	1.002
17	16613	12.548864412168	1.002
17	16891	12.598864412168	1.002
17	16906	12.648864412168	1.002
17	17217	12.698864412168	1.002
17	17234	12.748864412168	1.002
17	17589	12.798864412168	1.002
17	17606	12.848864412168	1.002
17	17965	12.898864412168	1.002
17	17982	12.948864412168	1.002
17	18336	12.998864412168	1.002
17	18353	13.048864412168	1.002
17	18723	13.098864412168	1.002
17	18740	13.148864412168	1.002
17	19110	13.198864412168	1.002
17	19127	13.248864412168	1.002
17	19497	13.298864412168	1.002
17	19514	13.348864412168	1.002
17	19857	13.398864412168	1.002
17	19874	13.448864412168	1.002
17	20222	13.498864412168	1.002
17	20239	13.548864412168	1.002
17	20582	13.598864412168	1.002
17	20599	13.648864412168	1.002
17	20947	13.698864412168	1.002
17	20964	13.748864412168	1.002
17	21323	13.798864412168	1.002
17	21340	13.848864412168	1.002
17	21694	13.898864412168	1.002
17	21711	13.948864412168	1.002
17	22081	13.998864412168	1.002
17	22098	14.048864412168	1.002
17	22441	14.098864412168	1.002
17	22458	14.148864412168	1.002
17	22801	14.198864412168	1.002
17	22818	14.248864412168	1.002
17	23177	14.298864412168	1.002
17	23194	14.348864412168	1.002
17	23548	14.398864412168	1.002
17	23565	14.448864412168	1.002
17	23924	14.498864412168	1.002
17	23941	14.548864412168	1.002
17	24295	14.598864412168	1.002
17	24312	14.648864412168	1.002
17	24682	14.698864412168	1.002
17	24699	14.748864412168	1.002
17	25053	14.798864412168	1.002
17	25070	14.848864412168	1.002
17	25413	14.898864412168	1.002
17	25430	14.948864412168	1.002
17	25773	14.998864412168	1.002
17	25790	15.048864412168	1.002
17	26138	15.098864412168	1.002
17	26155	15.148864412168	1.002
17	26514	15.198864412168	1.002
17	26531	15.248864412168	1.002
17	26869	15.298864412168	1.002
17	26886	15.348864412168	1.002
17	27240	15.398864412168	1.002
17	27257	15.448864412168	1.002
17	27611	15.498864412168	1.002
17	27628	15.548864412168	1.002
17	27987	15.598864412168	1.002
17	28004	15.648864412168	1.002
17	28347	15.698864412168	1.002
17	28364	15.748864412168	1.002
17	28712	15.798864412168	1.002
17	28729	15.848864412168	1.002
17	29088	15.898864412168	1.002
17	29105	15.948864412168	1.002
17	29464	15.998864412168	1.002
17	29481	16.048864412168	1.002
17	29819	16.098864412168	1.002
17	29836	16.148864412168	1.002
17	30206	16.198864412168	1.002
17	30223	16.248864412168	1.002
17	30566	16.298864412168	1.002
17	30583	16.348864412168	1.002
17	30942	16.398864412168	1.002
17	30959	16.448864412168	1.002
17	31318	16.498864412168	1.002
17	31335	16.548864412168	1.002
17	31689	16.598864412168	1.002
17	31706	16.648864412168	1.002
17	32054	16.698864412168	1.002
17	32071	16.748864412168	1.002
17	32414	16.798864412168	1.002
17	32431	16.848864412168	1.002
17	32785	16.898864412168	1.002
17	32802	16.948864412168	1.002
17	33156	16.998864412168	1.002
17	33173	17.048864412168	1.002
17	33527	17.098864412168	1.002
17	33544	17.148864412168	1.002
17	33914	17.198864412168	1.002
17	33931	17.248864412168	1.002
17	34285	17.298864412168	1.002
17	34302	17.348864412168	1.002
17	34661	17.398864412168	1.002
17	34678	17.448864412168	1.002
17	35021	17.498864412168	1.002
17	35038	17.548864412168	1.002
17	35397	17.598864412168	1.002
17	35414	17.648864412168	1.002
17	35768	17.698864412168	1.002
17	35785	17.748864412168	1.002
17	36128	17.798864412168	1.002
17	36145	17.848864412168	1.002
17	36488	17.898864412168	1.002
17	36505	17.948864412168	1.002
17	36859	17.998864412168	1.002
17	36876	18.048864412168	1.002
17	37224	18.098864412168	1.002
17	37241	18.148864412168	1.002
17	37600	18.198864412168	1.002
17	37617	18.248864412168	1.002
17	37960	18.298864412168	1.002
17	37977	18.348864412168	1.002
17	38320	18.398864412168	1.002
17	38337	18.448864412168	1.002
17	38680	18.498864412168	1.002
17	38697	18.548864412168	1.002
17	39040	18.598864412168	1.002
17	39057	18.648864412168	1.002
17	39411	18.698864412168	1.002
17	39428	18.748864412168	1.002
17	39782	18.798864412168	1.002
17	39799	18.848864412168	1.002
17	40153	18.898864412168	1.002
17	40170	18.948864412168	1.002
17	40513	18.998864412168	1.002
17	40530	19.048864412168	1.002
17	40873	19.098864412168	1.002
17	40890	19.148864412168	1.002
17	41244	19.198864412168	1.002
17	41261	19.248864412168	1.002
17	41615	19.298864412168	1.002
17	41632	19.348864412168	1.002
17	41991	19.398864412168	1.002
17	42008	19.448864412168	1.002
17	42378	19.498864412168	1.002
17	42395	19.548864412168	1.002
17	42743	19.598864412168	1.002
17	42760	19.648864412168	1.002
17	43119	19.698864412168	1.002
17	43136	19.748864412168	1.002
17	43490	19.798864412168	1.002
17	43507	19.848864412168	1.002
17	43866	19.898864412168	1.002
17	43883	19.948864412168	1.002
17	44226	19.998864412168	1.002
17	44243	20.048864412168	1.002
17	44602	20.098864412168	1.002
17	44619	20.148864412168	1.002
17	44973	20.198864412168	1.002
17	44990	20.248864412168	1.002
17	45344	20.298864412168	1.002
17	45361	20.348864412168	1.002
17	45709	20.398864412168	1.002
17	45726	20.448864412168	1.002
17	46069	20.498864412168	1.002
17	46086	20.548864412168	1.002
17	46456	20.598864412168	1.002
17	46473	20.648864412168	1.002
17	46816	20.698864412168	1.002
17	46833	20.748864412168	1.002
17	47203	20.798864412168	1.002
17	47220	20.848864412168	1.002
17	47579	20.898864412168	1.002
17	47596	20.948864412168	1.002
17	47955	20.998864412168	1.002
17	47972	21.048864412168	1.002
17	48326	21.098864412168	1.002
17	48343	21.148864412168	1.002
17	48702	21.198864412168	1.002
17	48719	21.248864412168	1.002
17	49057	21.298864412168	1.002
17	49074	21.348864412168	1.002
17	49417	21.398864412168	1.002
17	49434	21.448864412168	1.002
17	49777	21.498864412168	1.002
17	49794	21.548864412168	1.002
17	50148	21.598864412168	1.002
17	50165	21.648864412168	1.002
17	50519	21.698864412168	1.002
17	50536	21.748864412168	1.002
17	50890	21.798864412168	1.002
17	50907	21.848864412168	1.002
17	51266	21.898864412168	1.002
17	51283	21.948864412168	1.002
17	51653	21.998864412168	1.002
17	51670	22.048864412168	1.002
17	52013	22.098864412168	1.002
17	52030	22.148864412168	1.002
17	52384	22.198864412168	1.002
17	52401	22.248864412168	1.002
17	52760	22.298864412168	1.002
17	52777	22.348864412168	1.002
17	53131	22.398864412168	1.002
17	53148	22.448864412168	1.002
17	53491	22.498864412168	1.002
17	53508	22.548864412168	1.002
17	53856	22.598864412168	1.002
17	53873	22.648864412168	1.002
17	54243	22.698864412168	1.002
17	54260	22.748864412168	1.002
17	54592	22.798864412168	1.002
17	54609	22.848864412168	1.002
17	54952	22.898864412168	1.002
17	54969	22.948864412168	1.002
17	55323	22.998864412168	1.002
17	55340	23.048864412168	1.002
17	55672	23.098864412168	1.002
17	55689	23.148864412168	1.002
17	56043	23.198864412168	1.002
17	56060	23.248864412168	1.002
17	56419	23.298864412168	1.002
17	56436	23.348864412168	1.002
17	56795	23.398864412168	1.002
17	56812	23.448864412168	1.002
17	57160	23.498864412168	1.002
17	57177	23.548864412168	1.002
17	57536	23.598864412168	1.002
17	57553	23.648864412168	1.002
17	57923	23.698864412168	1.002
17	57940	23.748864412168	1.002
17	58299	23.798864412168	1.002
17	58316	23.848864412168	1.002
17	58670	23.898864412168	1.002
17	58687	23.948864412168	1.002
17	59025	23.998864412168	1.002
17	59042	24.048864412168	1.002
17	59401	24.098864412168	1.002
17	59418	24.148864412168	1.002
17	59772	24.198864412168	1.002
17	59789	24.248864412168	1.002
17	60148	24.298864412168	1.002
17	60165	24.348864412168	1.002
17	60508	24.398864412168	1.002
17	60525	24.448864412168	1.002
17	60884	24.498864412168	1.002
17	60901	24.548864412168	1.002
17	61271	24.598864412168	1.002
17	61288	24.648864412168	1.002
17	61642	24.698864412168	1.002
17	61659	24.748864412168	1.002
17	62018	24.798864412168	1.002
17	62035	24.848864412168	1.002
17	62383	24.898864412168	1.002
17	62400	24.948864412168	1.002
17	62732	24.998864412168	1.002
17	62749	25.048864412168	1.002
17	63119	25.098864412168	1.002
17	63136	25.148864412168	1.002
17	63506	25.198864412168	1.002
17	63523	25.248864412168	1.002
17	63866	25.298864412168	1.002
17	63883	25.348864412168	1.002
17	64237	25.398864412168	1.002
17	64254	25.448864412168	1.002
17	64608	25.498864412168	1.002
17	64625	25.548864412168	1.002
17	64973	25.598864412168	1.002
17	64990	25.648864412168	1.002
17	65349	25.698864412168	1.002
17	65366	25.748864412168	1.002
17	65725	25.798864412168	1.002
17	65742	25.848864412168	1.002
17	66085	25.898864412168	1.002
17	66102	25.948864412168	1.002
17	66456	25.998864412168	1.002
17	66473	26.048864412168	1.002
17	66821	26.098864412168	1.002
17	66838	26.148864412168	1.002
17	67208	26.198864412168	1.002
17	67225	26.248864412168	1.002
17	67595	26.298864412168	1.002
17	67612	26.348864412168	1.002
17	67949	26.398864412168	1.002
17	67966	26.448864412168	1.002
17	68325	26.498864412168	1.002
17	68342	26.548864412168	1.002
17	68696	26.598864412168	1.002
17	68713	26.648864412168	1.002
17	69072	26.698864412168	1.002
17	69089	26.748864412168	1.002
17	69432	26.798864412168	1.002
17	69449	26.848864412168	1.002
17	69808	26.898864412168	1.002
17	69825	26.948864412168	1.002
17	70163	26.998864412168	1.002
17	70180	27.048864412168	1.002
17	70534	27.098864412168	1.002
17	70551	27.148864412168	1.002
17	70910	27.198864412168	1.002
17	70927	27.248864412168	1.002
17	71281	27.298864412168	1.002
17	71298	27.348864412168	1.002
17	71646	27.398864412168	1.002
17	71663	27.448864412168	1.002
17	71995	27.498864412168	1.002
17	72012	27.548864412168	1.002
17	72382	27.598864412168	1.002
17	72399	27.648864412168	1.002
17	72753	27.698864412168	1.002
17	72770	27.748864412168	1.002
17	73140	27.798864412168	1.002
17	73157	27.848864412168	1.002
17	73511	27.898864412168	1.002
17	73528	27.948864412168	1.002
17	73871	27.998864412168	1.002
17	73888	28.048864412168	1.002
17	74242	28.098864412168	1.002
17	74259	28.148864412168	1.002
17	74613	28.198864412168	1.002
17	74630	28.248864412168	1.002
17	74984	28.298864412168	1.002
17	75001	28.348864412168	1.002
17	75360	28.398864412168	1.002
17	75377	28.448864412168	1.002
17	75736	28.498864412168	1.002
17	75753	28.548864412168	1.002
17	76123	28.598864412168	1.002
17	76140	28.648864412168	1.002
17	76510	28.698864412168	1.002
17	76527	28.748864412168	1.002
17	76870	28.798864412168	1.002
17	76887	28.848864412168	1.002
17	77241	28.898864412168	1.002
17	77258	28.948864412168	1.002
17	77617	28.998864412168	1.002
17	77634	29.048864412168	1.002
17	77988	29.098864412168	1.002
17	78005	29.148864412168	1.002
17	78364	29.198864412168	1.002
17	78381	29.248864412168	1.002
17	78740	29.298864412168	1.002
17	78757	29.348864412168	1.002
17	79111	29.398864412168	1.002
17	79128	29.448864412168	1.002
17	79482	29.498864412168	1.002
17	79499	29.548864412168	1.002
17	79858	29.598864412168	1.002
17	79875	29.648864412168	1.002
17	80229	29.698864412168	1.002
17	80246	29.748864412168	1.002
17	80600	29.798864412168	1.002
17	80617	29.848864412168	1.002
17	80960	29.898864412168	1.002
17	80977	29.948864412168	1.002
17	81331	29.998864412168	1.002
17	81348	30.048864412168	1.002
17	81686	30.098864412168	1.002
17	81703	30.148864412168	1.002
17	82057	30.198864412168	1.002
17	82074	30.248864412168	1.002
17	82406	30.298864412168	1.002
17	82423	30.348864412168	1.002
17	82793	30.398864412168	1.002
17	82810	30.448864412168	1.002
17	83153	30.498864412168	1.002
17	83170	30.548864412168	1.002
17	83529	30.598864412168	1.002
17	83546	30.648864412168	1.002
17	83900	30.698864412168	1.002
17	83917	30.748864412168	1.002
17	84276	30.798864412168	1.002
17	84293	30.848864412168	1.002
17	84636	30.898864412168	1.002
17	84653	30.948864412168	1.002
17	85023	30.998864412168	1.002
17	85040	31.048864412168	1.002
17	85394	31.098864412168	1.002
17	85411	31.148864412168	1.002
17	85770	31.198864412168	1.002
17	85787	31.248864412168	1.002
17	86130	31.298864412168	1.002
17	86147	31.348864412168	1.002
17	86517	31.398864412168	1.002
17	86534	31.448864412168	1.002
17	86893	31.498864412168	1.002
17	86910	31.548864412168	1.002
17	87253	31.598864412168	1.002
17	87270	31.648864412168	1.002
17	87640	31.698864412168	1.002
17	87657	31.748864412168	1.002
17	88000	31.798864412168	1.002
17	88017	31.848864412168	1.002
17	88371	31.898864412168	1.002
17	88388	31.948864412168	1.002
17	88731	31.998864412168	1.002
17	88748	32.048864412168	1.002
17	89102	32.098864412168	1.002
17	89119	32.148864412168	1.002
17	89473	32.198864412168	1.002
17	89490	32.248864412168	1.002
17	89833	32.298864412168	1.002
17	89850	32.348864412168	1.002
17	90204	32.398864412168	1.002
17	90221	32.448864412168	1.002
17	90564	32.498864412168	1.002
17	90581	32.548864412168	1.002
17	90913	32.598864412168	1.002
17	90930	32.648864412168	1.002
17	91284	32.698864412168	1.002
17	91301	32.748864412168	1.002
17	91644	32.798864412168	1.002
17	91661	32.848864412168	1.002
17	92015	32.898864412168	1.002
17	92032	32.948864412168	1.002
17	92375	32.998864412168	1.002
17	92392	33.048864412168	1.002
17	92746	33.098864412168	1.002
17	92763	33.148864412168	1.002
17	93117	33.198864412168	1.002
17	93134	33.248864412168	1.002
17	93488	33.298864412168	1.002
17	93505	33.348864412168	1.002
17	93848	33.398864412168	1.002
17	93865	33.448864412168	1.002
17	94208	33.498864412168	1.002
17	94225	33.548864412168	1.002
17	94568	33.598864412168	1.002
17	94585	33.648864412168	1.002
17	94944	33.698864412168	1.002
17	94961	33.748864412168	1.002
17	95315	33.798864412168	1.002
17	95332	33.848864412168	1.002
17	95691	33.898864412168	1.002
17	95708	33.948864412168	1.002
17	96067	33.998864412168	1.002
17	96084	34.048864412168	1.002
17	96443	34.098864412168	1.002
17	96460	34.148864412168	1.002
17	96819	34.198864412168	1.002
17	96836	34.248864412168	1.002
17	97195	34.298864412168	1.002
17	97212	34.348864412168	1.002
17	97566	34.398864412168	1.002
17	97583	34.448864412168	1.002
17	97953	34.498864412168	1.002
17	97970	34.548864412168	1.002
17	98340	34.598864412168	1.002
17	98357	34.648864412168	1.002
17	98711	34.698864412168	1.002
17	98728	34.748864412168	1.002
17	99071	34.798864412168	1.002
17	99088	34.848864412168	1.002
17	99442	34.898864412168	1.002
17	99459	34.948864412168	1.002
17	99818	34.998864412168	1.002
17	99835	35.048864412168	1.002
17	100183	35.098864412168	1.002
17	100200	35.148864412168	1.002
17	100554	35.198864412168	1.002
17	100571	35.248864412168	1.002
17	100925	35.298864412168	1.002
17	100942	35.348864412168	1.002
17	101285	35.398864412168	1.002
17	101302	35.448864412168	1.002
17	101634	35.498864412168	1.002
17	101651	35.548864412168	1.002
17	102021	35.598864412168	1.002
17	102038	35.648864412168	1.002
17	102392	35.698864412168	1.002
17	102409	35.748864412168	1.002
17	102752	35.798864412168	1.002
17	102769	35.848864412168	1.002
17	103128	35.898864412168	1.002
17	103145	35.948864412168	1.002
17	103488	35.998864412168	1.002
17	103505	36.048864412168	1.002
17	103848	36.098864412168	1.002
17	103865	36.148864412168	1.002
17	104219	36.198864412168	1.002
17	104236	36.248864412168	1.002
17	104579	36.298864412168	1.002
17	104596	36.348864412168	1.002
17	104939	36.398864412168	1.002
17	104956	36.448864412168	1.002
17	105310	36.498864412168	1.002
17	105327	36.548864412168	1.002
17	105681	36.598864412168	1.002
17	105698	36.648864412168	1.002
17	106068	36.698864412168	1.002
17	106085	36.748864412168	1.002
17	106439	36.798864412168	1.002
17	106456	36.848864412168	1.002
17	106815	36.898864412168	1.002
17	106832	36.948864412168	1.002
17	107175	36.998864412168	1.002
17	107192	37.048864412168	1.002
17	107546	37.098864412168	1.002
17	107563	37.148864412168	1.002
17	107917	37.198864412168	1.002
17	107934	37.248864412168	1.002
17	108293	37.298864412168	1.002
17	108310	37.348864412168	1.002
17	108680	37.398864412168	1.002
17	108697	37.448864412168	1.002
17	109051	37.498864412168	1.002
17	109068	37.548864412168	1.002
17	109438	37.598864412168	1.002
17	109455	37.648864412168	1.002
17	109814	37.698864412168	1.002
17	109831	37.748864412168	1.002
17	110169	37.798864412168	1.002
17	110186	37.848864412168	1.002
17	110545	37.898864412168	1.002
17	110562	37.948864412168	1.002
17	110932	37.998864412168	1.002
17	110949	38.048864412168	1.002
17	111303	38.098864412168	1.002
17	111320	38.148864412168	1.002
17	111674	38.198864412168	1.002
17	111691	38.248864412168	1.002
17	112023	38.298864412168	1.002
17	112040	38.348864412168	1.002
17	112394	38.398864412168	1.002
17	112411	38.448864412168	1.002
17	112765	38.498864412168	1.002
17	112782	38.548864412168	1.002
17	113136	38.598864412168	1.002
17	113153	38.648864412168	1.002
17	113507	38.698864412168	1.002
17	113524	38.748864412168	1.002
17	113862	38.798864412168	1.002
17	113879	38.848864412168	1.002
17	114222	38.898864412168	1.002
17	114239	38.948864412168	1.002
17	114593	38.998864412168	1.002
17	114610	39.048864412168	1.002
17	114980	39.098864412168	1.002
17	114997	39.148864412168	1.002
17	115351	39.198864412168	1.002
17	115368	39.248864412168	1.002
17	115727	39.298864412168	1.002
17	115744	39.348864412168	1.002
17	116098	39.398864412168	1.002
17	116115	39.448864412168	1.002
17	116485	39.498864412168	1.002
17	116502	39.548864412168	1.002
17	116845	39.598864412168	1.002
17	116862	39.648864412168	1.002
17	117221	39.698864412168	1.002
17	117238	39.748864412168	1.002
17	117597	39.798864412168	1.002
17	117614	39.848864412168	1.002
17	117973	39.898864412168	1.002
17	117990	39.948864412168	1.002
17	118333	39.998864412168	1.002
17	118350	40.048864412168	1.002
17	118698	40.098864412168	1.002
17	118715	40.148864412168	1.002
17	119074	40.198864412168	1.002
17	119091	40.248864412168	1.002
17	119429	40.298864412168	1.002
17	119446	40.348864412168	1.002
17	119784	40.398864412168	1.002
17	119801	40.448864412168	1.002
17	120160	40.498864412168	1.002
17	120177	40.548864412168	1.002
17	120536	40.598864412168	1.002
17	120553	40.648864412168	1.002
17	120923	40.698864412168	1.002
17	120940	40.748864412168	1.002
17	121294	40.798864412168	1.002
17	121311	40.848864412168	1.002
17	121643	40.898864412168	1.002
17	121660	40.948864412168	1.002
17	122014	40.998864412168	1.002
17	122031	41.048864412168	1.002
17	122390	41.098864412168	1.002
17	122407	41.148864412168	1.002
17	122745	41.198864412168	1.002
17	122762	41.248864412168	1.002
17	123116	41.298864412168	1.002
17	123133	41.348864412168	1.002
17	123476	41.398864412168	1.002
17	123493	41.448864412168	1.002
17	123825	41.498864412168	1.002
17	123842	41.548864412168	1.002
17	124196	41.598864412168	1.002
17	124213	41.648864412168	1.002
17	124567	41.698864412168	1.002
17	124584	41.748864412168	1.002
17	124938	41.798864412168	1.002
17	124955	41.848864412168	1.002
17	125303	41.898864412168	1.002
17	125320	41.948864412168	1.002
17	125674	41.998864412168	1.002
17	125691	42.048864412168	1.002
17	126050	42.098864412168	1.002
17	126067	42.148864412168	1.002
17	126421	42.198864412168	1.002
17	126438	42.248864412168	1.002
17	126792	42.298864412168	1.002
17	126809	42.348864412168	1.002
17	127152	42.398864412168	1.002
17	127169	42.448864412168	1.002
17	127507	42.498864412168	1.002
17	127524	42.548864412168	1.002
17	127878	42.598864412168	1.002
17	127895	42.648864412168	1.002
17	128249	42.698864412168	1.002
17	128266	42.748864412168	1.002
17	128625	42.798864412168	1.002
17	128642	42.848864412168	1.002
17	128996	42.898864412168	1.002
17	129013	42.948864412168	1.002
17	129367	42.998864412168	1.002
17	129384	43.048864412168	1.002
17	129754	43.098864412168	1.002
17	129771	43.148864412168	1.002
17	130125	43.198864412168	1.002
17	130142	43.248864412168	1.002
17	130485	43.298864412168	1.002
17	130502	43.348864412168	1.002
17	130861	43.398864412168	1.002
17	130878	43.448864412168	1.002
17	131232	43.498864412168	1.002
17	131249	43.548864412168	1.002
17	131608	43.598864412168	1.002
17	131625	43.648864412168	1.002
17	131973	43.698864412168	1.002
17	131990	43.748864412168	1.002
17	132338	43.798864412168	1.002
17	132355	43.848864412168	1.002
17	132698	43.898864412168	1.002
17	132715	43.948864412168	1.002
17	133069	43.998864412168	1.002
17	133086	44.048864412168	1.002
17	133424	44.098864412168	1.002
17	133441	44.148864412168	1.002
17	133784	44.198864412168	1.002
17	133801	44.248864412168	1.002
17	134144	44.298864412168	1.002
17	134161	44.348864412168	1.002
17	134504	44.398864412168	1.002
17	134521	44.448864412168	1.002
17	134864	44.498864412168	1.002
17	134881	44.548864412168	1.002
17	135224	44.598864412168	1.002
17	135241	44.648864412168	1.002
17	135595	44.698864412168	1.002
17	135612	44.748864412168	1.002
17	135955	44.798864412168	1.002
17	135972	44.848864412168	1.002
17	136326	44.898864412168	1.002
17	136343	44.948864412168	1.002
17	136702	44.998864412168	1.002
17	136719	45.048864412168	1.002
17	137067	45.098864412168	1.002
17	137084	45.148864412168	1.002
17	137427	45.198864412168	1.002
17	137444	45.248864412168	1.002
17	137782	45.298864412168	1.002
17	137799	45.348864412168	1.002
17	138158	45.398864412168	1.002
17	138175	45.448864412168	1.002
17	138529	45.498864412168	1.002
17	138546	45.548864412168	1.002
17	138900	45.598864412168	1.002
17	138917	45.648864412168	1.002
17	139271	45.698864412168	1.002
17	139288	45.748864412168	1.002
17	139642	45.798864412168	1.002
17	139659	45.848864412168	1.002
17	140013	45.898864412168	1.002
17	140030	45.948864412168	1.002
17	140384	45.998864412168	1.002
17	140401	46.048864412168	1.002
17	140755	46.098864412168	1.002
17	140772	46.148864412168	1.002
17	141115	46.198864412168	1.002
17	141132	46.248864412168	1.002
17	141491	46.298864412168	1.002
17	141508	46.348864412168	1.002
17	141856	46.398864412168	1.002
17	141873	46.448864412168	1.002
17	142227	46.498864412168	1.002
17	142244	46.548864412168	1.002
17	142587	46.598864412168	1.002
17	142604	46.648864412168	1.002
17	142958	46.698864412168	1.002
17	142975	46.748864412168	1.002
17	143329	46.798864412168	1.002
17	143346	46.848864412168	1.002
17	143716	46.898864412168	1.002
17	143733	46.948864412168	1.002
17	144076	46.998864412168	1.002
17	144093	47.048864412168	1.002
17	144441	47.098864412168	1.002
17	144458	47.148864412168	1.002
17	144812	47.198864412168	1.002
17	144829	47.248864412168	1.002
17	145183	47.298864412168	1.002
17	145200	47.348864412168	1.002
17	145570	47.398864412168	1.002
17	145587	47.448864412168	1.002
17	145946	47.498864412168	1.002
17	145963	47.548864412168	1.002
17	146311	47.598864412168	1.002
17	146328	47.648864412168	1.002
17	146682	47.698864412168	1.002
17	146699	47.748864412168	1.002
17	147042	47.798864412168	1.002
17	147059	47.848864412168	1.002
17	147413	47.898864412168	1.002
17	147430	47.948864412168	1.002
17	147800	47.998864412168	1.002
17	147817	48.048864412168	1.002
17	148160	48.098864412168	1.002
17	148177	48.148864412168	1.002
17	148536	48.198864412168	1.002
17	148553	48.248864412168	1.002
17	148891	48.298864412168	1.002
17	148908	48.348864412168	1.002
17	149267	48.398864412168	1.002
17	149284	48.448864412168	1.002
17	149654	48.498864412168	1.002
17	149671	48.548864412168	1.002
17	150030	48.598864412168	1.002
17	150047	48.648864412168	1.002
17	150390	48.698864412168	1.002
17	150407	48.748864412168	1.002
17	150766	48.798864412168	1.002
17	150783	48.848864412168	1.002
17	151142	48.898864412168	1.002
17	151159	48.948864412168	1.002
17	151502	48.998864412168	1.002
17	151519	49.048864412168	1.002
17	151862	49.098864412168	1.002
17	151879	49.148864412168	1.002
17	152227	49.198864412168	1.002
17	152244	49.248864412168	1.002
17	152603	49.298864412168	1.002
17	152620	49.348864412168	1.002
17	152963	49.398864412168	1.002
17	152980	49.448864412168	1.002
17	153334	49.498864412168	1.002
17	153351	49.548864412168	1.002
17	153694	49.598864412168	1.002
17	153711	49.648864412168	1.002
17	154070	49.698864412168	1.002
17	154087	49.748864412168	1.002
17	154441	49.798864412168	1.002
17	154458	49.848864412168	1.002
17	154812	49.898864412168	1.002
17	154829	49.948864412168	1.002
17	155183	49.998864412168	1.002
17	155200	50.048864412168	1.002
17	155543	50.098864412168	1.002
17	155560	50.148864412168	1.002
17	155903	50.198864412168	1.002
17	155920	50.248864412168	1.002
17	156258	50.298864412168	1.002
17	156275	50.348864412168	1.002
17	156634	50.398864412168	1.002
17	156651	50.448864412168	1.002
17	157005	50.498864412168	1.002
17	157022	50.548864412168	1.002
17	157381	50.598864412168	1.002
17	157398	50.648864412168	1.002
17	157741	50.698864412168	1.002
17	157758	50.748864412168	1.002
17	158112	50.798864412168	1.002
17	158129	50.848864412168	1.002
17	158472	50.898864412168	1.002
17	158489	50.948864412168	1.002
17	158827	50.998864412168	1.002
17	158844	51.048864412168	1.002
17	159187	51.098864412168	1.002
17	159204	51.148864412168	1.002
17	159558	51.198864412168	1.002
17	159575	51.248864412168	1.002
17	159934	51.298864412168	1.002
17	159951	51.348864412168	1.002
17	160299	51.398864412168	1.002
17	160316	51.448864412168	1.002
17	160675	51.498864412168	1.002
17	160692	51.548864412168	1.002
17	161046	51.598864412168	1.002
17	161063	51.648864412168	1.002
17	161417	51.698864412168	1.002
17	161434	51.748864412168	1.002
17	161788	51.798864412168	1.002
17	161805	51.848864412168	1.002
17	162164	51.898864412168	1.002
17	162181	51.948864412168	1.002
17	162524	51.998864412168	1.002
17	162541	52.048864412168	1.002
17	162873	52.098864412168	1.002
17	162890	52.148864412168	1.002
17	163244	52.198864412168	1.002
17	163261	52.248864412168	1.002
17	163615	52.298864412168	1.002
17	163632	52.348864412168	1.002
17	163991	52.398864412168	1.002
17	164008	52.448864412168	1.002
17	164378	52.498864412168	1.002
17	164395	52.548864412168	1.002
17	164754	52.598864412168	1.002
17	164771	52.648864412168	1.002
17	165114	52.698864412168	1.002
17	165131	52.748864412168	1.002
17	165474	52.798864412168	1.002
17	165491	52.848864412168	1.002
17	165845	52.898864412168	1.002
17	165862	52.948864412168	1.002
17	166221	52.998864412168	1.002
17	166238	53.048864412168	1.002
17	166586	53.098864412168	1.002
17	166603	53.148864412168	1.002
17	166973	53.198864412168	1.002
17	166990	53.248864412168	1.002
17	167328	53.298864412168	1.002
17	167345	53.348864412168	1.002
17	167704	53.398864412168	1.002
17	167721	53.448864412168	1.002
17	168091	53.498864412168	1.002
17	168108	53.548864412168	1.002
17	168478	53.598864412168	1.002
17	168495	53.648864412168	1.002
17	168854	53.698864412168	1.002
17	168871	53.748864412168	1.002
17	169241	53.798864412168	1.002
17	169258	53.848864412168	1.002
17	169617	53.898864412168	1.002
17	169634	53.948864412168	1.002
17	169988	53.998864412168	1.002
17	170005	54.048864412168	1.002
17	170364	54.098864412168	1.002
17	170381	54.148864412168	1.002
17	170724	54.198864412168	1.002
17	170741	54.248864412168	1.002
17	171100	54.298864412168	1.002
17	171117	54.348864412168	1.002
17	171455	54.398864412168	1.002
17	171472	54.448864412168	1.002
17	171826	54.498864412168	1.002
17	171843	54.548864412168	1.002
17	172186	54.598864412168	1.002
17	172203	54.648864412168	1.002
17	172562	54.698864412168	1.002
17	172579	54.748864412168	1.002
17	172933	54.798864412168	1.002
17	172950	54.848864412168	1.002
17	173320	54.898864412168	1.002
17	173337	54.948864412168	1.002
17	173691	54.998864412168	1.002
17	173708	55.048864412168	1.002
17	174067	55.098864412168	1.002
17	174084	55.148864412168	1.002
17	174427	55.198864412168	1.002
17	174444	55.248864412168	1.002
17	174803	55.298864412168	1.002
17	174820	55.348864412168	1.002
17	175190	55.398864412168	1.002
17	175207	55.448864412168	1.002
17	175577	55.498864412168	1.002
17	175594	55.548864412168	1.002
17	175953	55.598864412168	1.002
17	175970	55.648864412168	1.002
17	176313	55.698864412168	1.002
17	176330	55.748864412168	1.002
17	176689	55.798864412168	1.002
17	176706	55.848864412168	1.002
17	177049	55.898864412168	1.002
17	177066	55.948864412168	1.002
17	177409	55.998864412168	1.002
17	177426	56.048864412168	1.002
17	177758	56.098864412168	1.002
17	177775	56.148864412168	1.002
17	178145	56.198864412168	1.002
17	178162	56.248864412168	1.002
17	178505	56.298864412168	1.002
17	178522	56.348864412168	1.002
17	178876	56.398864412168	1.002
17	178893	56.448864412168	1.002
17	179252	56.498864412168	1.002
17	179269	56.548864412168	1.002
17	179623	56.598864412168	1.002
17	179640	56.648864412168	1.002
17	179983	56.698864412168	1.002
17	180000	56.748864412168	1.002
17	180354	56.798864412168	1.002
17	180371	56.848864412168	1.002
17	180730	56.898864412168	1.002
17	180747	56.948864412168	1.002
17	181106	56.998864412168	1.002
17	181123	57.048864412168	1.002
17	181477	57.098864412168	1.002
17	181494	57.148864412168	1.002
17	181848	57.198864412168	1.002
17	181865	57.248864412168	1.002
17	182219	57.298864412168	1.002
17	182236	57.348864412168	1.002
17	182584	57.398864412168	1.002
17	182601	57.448864412168	1.002
17	182960	57.498864412168	1.002
17	182977	57.548864412168	1.002
17	183347	57.598864412168	1.002
17	183364	57.648864412168	1.002
17	183723	57.698864412168	1.002
17	183740	57.748864412168	1.002
17	184094	57.798864412168	1.002
17	184111	57.848864412168	1.002
17	184454	57.898864412168	1.002
17	184471	57.948864412168	1.002
17	184825	57.998864412168	1.002
17	184842	58.048864412168	1.002
17	185185	58.098864412168	1.002
17	185202	58.148864412168	1.002
17	185556	58.198864412168	1.002
17	185573	58.248864412168	1.002
17	185927	58.298864412168	1.002
17	185944	58.348864412168	1.002
17	186287	58.398864412168	1.002
17	186304	58.448864412168	1.002
17	186674	58.498864412168	1.002
17	186691	58.548864412168	1.002
17	187061	58.598864412168	1.002
17	187078	58.648864412168	1.002
17	187432	58.698864412168	1.002
17	187449	58.748864412168	1.002
17	187819	58.798864412168	1.002
17	187836	58.848864412168	1.002
17	188190	58.898864412168	1.002
17	188207	58.948864412168	1.002
17	188550	58.998864412168	1.002
17	188567	59.048864412168	1.002
17	188937	59.098864412168	1.002
17	188954	59.148864412168	1.002
17	189324	59.198864412168	1.002
17	189341	59.248864412168	1.002
17	189700	59.298864412168	1.002
17	189717	59.348864412168	1.002
17	190076	59.398864412168	1.002
17	190093	59.448864412168	1.002
17	190452	59.498864412168	1.002
17	190469	59.548864412168	1.002
17	190828	59.598864412168	1.002
17	190845	59.648864412168	1.002
17	191188	59.698864412168	1.002
17	191205	59.748864412168	1.002
17	191553	59.798864412168	1.002
17	191570	59.848864412168	1.002
17	191924	59.898864412168	1.002
17	191941	59.948864412168	1.002
17	192311	59.998864412168	1.002
17	192328	60.048864412168	1.002
17	192666	60.098864412168	1.002
17	192683	60.148864412168	1.002
17	193053	60.198864412168	1.002
17	193070	60.248864412168	1.002
17	193424	60.298864412168	1.002
17	193441	60.348864412168	1.002
17	193784	60.398864412168	1.002
17	193801	60.448864412168	1.002
17	194160	60.498864412168	1.002
17	194177	60.548864412168	1.002
17	194520	60.598864412168	1.002
17	194537	60.648864412168	1.002
17	194891	60.698864412168	1.002
17	194908	60.748864412168	1.002
17	195262	60.798864412168	1.002
17	195279	60.848864412168	1.002
17	195638	60.898864412168	1.002
17	195655	60.948864412168	1.002
17	196025	60.998864412168	1.002
17	196042	61.048864412168	1.002
17	196396	61.098864412168	1.002
17	196413	61.148864412168	1.002
17	196756	61.198864412168	1.002
17	196773	61.248864412168	1.002
17	197127	61.298864412168	1.002
17	197144	61.348864412168	1.002
17	197503	61.398864412168	1.002
17	197520	61.448864412168	1.002
17	197879	61.498864412168	1.002
17	197896	61.548864412168	1.002
17	198266	61.598864412168	1.002
17	198283	61.648864412168	1.002
17	198653	61.698864412168	1.002
16	37	0.798864412168	1
16	42	0.848864412168	2
16	72	0.898864412168	3
16	77	0.948864412168	4
16	107	0.998864412168	5
16	112	1.048864412168	6
16	142	1.098864412168	7
16	147	1.148864412168	8
16	177	1.198864412168	9
16	182	1.248864412168	10
16	212	1.298864412168	11
16	217	1.348864412168	12
16	247	1.398864412168	13
16	252	1.448864412168	14
16	282	1.498864412168	15
16	287	1.548864412168	16
16	317	1.598864412168	17
16	322	1.648864412168	18
16	352	1.698864412168	19
16	357	1.748864412168	20
16	387	1.798864412168	21
16	392	1.848864412168	22
16	422	1.898864412168	23
16	427	1.948864412168	24
16	457	1.998864412168	25
16	462	2.048864412168	26
16	492	2.098864412168	27
16	497	2.148864412168	28
16	527	2.198864412168	29
16	532	2.248864412168	30
16	562	2.298864412168	31
16	567	2.348864412168	32
16	597	2.398864412168	33
16	602	2.448864412168	34
16	632	2.498864412168	35
16	637	2.548864412168	36
16	667	2.598864412168	37
16	672	2.648864412168	38
16	702	2.698864412168	39
16	707	2.748864412168	40
16	737	2.798864412168	41
16	742	2.848864412168	42
16	772	2.898864412168	43
16	777	2.948864412168	44
16	807	2.998864412168	45
16	812	3.048864412168	46
16	842	3.098864412168	47
16	847	3.148864412168	48
16	890	3.198864412168	49
16	896	3.248864412168	50
16	939	3.298864412168	51
16	945	3.348864412168	52
16	988	3.398864412168	53
16	994	3.448864412168	54
16	1037	3.498864412168	55
16	1043	3.548864412168	56
16	1086	3.598864412168	57
16	1092	3.648864412168	58
16	1135	3.698864412168	59
16	1141	3.748864412168	60
16	1205	3.798864412168	62
16	1213	3.848864412168	64
16	1289	3.898864412168	66
16	1297	3.948864412168	68
16	1373	3.998864412168	70
16	1381	4.048864412168	72
16	1464	4.098864412168	74
16	1472	4.148864412168	76
16	1555	4.198864412168	78
16	1563	4.248864412168	80
16	1646	4.298864412168	82
16	1654	4.348864412168	84
16	1737	4.398864412168	86
16	1745	4.448864412168	88
16	1828	4.498864412168	90
16	1836	4.548864412168	92
16	1919	4.598864412168	94
16	1927	4.648864412168	96
16	2003	4.698864412168	98
16	2011	4.748864412168	100
16	2094	4.798864412168	102
16	2102	4.848864412168	104
16	2178	4.898864412168	106
16	2186	4.948864412168	108
16	2269	4.998864412168	110
16	2277	5.048864412168	112
16	2360	5.098864412168	114
16	2368	5.148864412168	116
16	2451	5.198864412168	118
16	2459	5.248864412168	120
16	2542	5.298864412168	122
16	2550	5.348864412168	124
16	2626	5.398864412168	126
16	2634	5.448864412168	128
16	2717	5.498864412168	130
16	2725	5.548864412168	132
16	2808	5.598864412168	134
16	2816	5.648864412168	136
16	2892	5.698864412168	138
16	2900	5.748864412168	140
16	2983	5.798864412168	142
16	2991	5.848864412168	144
16	3074	5.898864412168	146
16	3082	5.948864412168	148
16	3158	5.998864412168	150
16	3166	6.048864412168	152
16	3242	6.098864412168	154
16	3250	6.148864412168	156
16	3358	6.198864412168	158
16	3367	6.248864412168	160
16	3475	6.298864412168	162
16	3484	6.348864412168	164
16	3592	6.398864412168	166
16	3601	6.448864412168	168
16	3699	6.498864412168	170
16	3708	6.548864412168	172
16	3816	6.598864412168	174
16	3825	6.648864412168	176
16	3933	6.698864412168	178
16	3944	6.748864412168	181
16	4084	6.798864412168	184
16	4095	6.848864412168	187
16	4238	6.898864412168	190
16	4249	6.948864412168	193
16	4409	6.998864412168	196
16	4420	7.048864412168	199
16	4580	7.098864412168	202
16	4591	7.148864412168	205
16	4741	7.198864412168	208
16	4752	7.248864412168	211
16	4912	7.298864412168	214
16	4923	7.348864412168	217
16	5073	7.398864412168	220
16	5084	7.448864412168	223
16	5244	7.498864412168	226
16	5255	7.548864412168	229
16	5405	7.598864412168	232
16	5416	7.648864412168	235
16	5566	7.698864412168	238
16	5577	7.748864412168	241
16	5727	7.798864412168	244
16	5738	7.848864412168	247
16	5888	7.898864412168	250
16	5899	7.948864412168	253
16	6049	7.998864412168	256
16	6060	8.048864412168	259
16	6210	8.098864412168	262
16	6221	8.148864412168	265
16	6371	8.198864412168	268
16	6382	8.248864412168	271
16	6532	8.298864412168	274
16	6543	8.348864412168	277
16	6703	8.398864412168	280
16	6714	8.448864412168	283
16	6864	8.498864412168	286
16	6875	8.548864412168	289
16	7035	8.598864412168	292
16	7046	8.648864412168	295
16	7189	8.698864412168	298
16	7200	8.748864412168	301
16	7350	8.798864412168	304
16	7361	8.848864412168	307
16	7511	8.898864412168	310
16	7522	8.948864412168	313
16	7672	8.998864412168	316
16	7683	9.048864412168	319
16	7833	9.098864412168	322
16	7844	9.148864412168	325
16	8028	9.198864412168	328
16	8040	9.248864412168	331
16	8224	9.298864412168	334
16	8236	9.348864412168	337
16	8453	9.398864412168	341
16	8467	9.448864412168	345
16	8702	9.498864412168	349
16	8716	9.548864412168	353
16	8955	9.598864412168	357
16	8969	9.648864412168	361
16	9217	9.698864412168	365
16	9231	9.748864412168	369
16	9470	9.798864412168	373
16	9484	9.848864412168	377
16	9732	9.898864412168	381
16	9746	9.948864412168	385
16	9994	9.998864412168	389
16	10008	10.048864412168	393
16	10256	10.098864412168	397
16	10270	10.148864412168	401
16	10509	10.198864412168	405
16	10523	10.248864412168	409
16	10771	10.298864412168	413
16	10785	10.348864412168	417
16	11033	10.398864412168	421
16	11047	10.448864412168	425
16	11286	10.498864412168	429
16	11300	10.548864412168	433
16	11539	10.598864412168	437
16	11553	10.648864412168	441
16	11779	10.698864412168	445
16	11793	10.748864412168	449
16	12041	10.798864412168	453
16	12055	10.848864412168	457
16	12303	10.898864412168	461
16	12317	10.948864412168	465
16	12565	10.998864412168	469
16	12579	11.048864412168	473
16	12818	11.098864412168	477
16	12832	11.148864412168	481
16	13080	11.198864412168	485
16	13094	11.248864412168	489
16	13333	11.298864412168	493
16	13347	11.348864412168	497
16	13582	11.398864412168	501
16	13596	11.448864412168	505
16	13844	11.498864412168	509
16	13858	11.548864412168	513
16	14106	11.598864412168	517
16	14120	11.648864412168	521
16	14368	11.698864412168	525
16	14382	11.748864412168	529
16	14630	11.798864412168	533
16	14644	11.848864412168	537
16	14879	11.898864412168	541
16	14893	11.948864412168	545
16	15141	11.998864412168	549
16	15155	12.048864412168	553
16	15394	12.098864412168	557
16	15408	12.148864412168	561
16	15702	12.198864412168	565
16	15717	12.248864412168	569
16	15995	12.298864412168	573
16	16010	12.348864412168	577
16	16304	12.398864412168	581
16	16319	12.448864412168	585
16	16598	12.498864412168	589
16	16613	12.548864412168	593
16	16891	12.598864412168	597
16	16906	12.648864412168	601
16	17217	12.698864412168	606
16	17234	12.748864412168	611
16	17589	12.798864412168	616
16	17606	12.848864412168	621
16	17965	12.898864412168	626
16	17982	12.948864412168	631
16	18336	12.998864412168	636
16	18353	13.048864412168	641
16	18723	13.098864412168	646
16	18740	13.148864412168	651
16	19110	13.198864412168	656
16	19127	13.248864412168	661
16	19497	13.298864412168	666
16	19514	13.348864412168	671
16	19857	13.398864412168	676
16	19874	13.448864412168	681
16	20222	13.498864412168	686
16	20239	13.548864412168	691
16	20582	13.598864412168	696
16	20599	13.648864412168	701
16	20947	13.698864412168	706
16	20964	13.748864412168	711
16	21323	13.798864412168	716
16	21340	13.848864412168	721
16	21694	13.898864412168	726
16	21711	13.948864412168	731
16	22081	13.998864412168	736
16	22098	14.048864412168	741
16	22441	14.098864412168	746
16	22458	14.148864412168	751
16	22801	14.198864412168	756
16	22818	14.248864412168	761
16	23177	14.298864412168	766
16	23194	14.348864412168	771
16	23548	14.398864412168	776
16	23565	14.448864412168	781
16	23924	14.498864412168	786
16	23941	14.548864412168	791
16	24295	14.598864412168	796
16	24312	14.648864412168	801
16	24682	14.698864412168	806
16	24699	14.748864412168	811
16	25053	14.798864412168	816
16	25070	14.848864412168	821
16	25413	14.898864412168	826
16	25430	14.948864412168	831
16	25773	14.998864412168	836
16	25790	15.048864412168	841
16	26138	15.098864412168	846
16	26155	15.148864412168	851
16	26514	15.198864412168	856
16	26531	15.248864412168	861
16	26869	15.298864412168	866
16	26886	15.348864412168	871
16	27240	15.398864412168	876
16	27257	15.448864412168	881
16	27611	15.498864412168	886
16	27628	15.548864412168	891
16	27987	15.598864412168	896
16	28004	15.648864412168	901
16	28347	15.698864412168	906
16	28364	15.748864412168	911
16	28712	15.798864412168	916
16	28729	15.848864412168	921
16	29088	15.898864412168	926
16	29105	15.948864412168	931
16	29464	15.998864412168	936
16	29481	16.048864412168	941
16	29819	16.098864412168	946
16	29836	16.148864412168	951
16	30206	16.198864412168	956
16	30223	16.248864412168	961
16	30566	16.298864412168	966
16	30583	16.348864412168	971
16	30942	16.398864412168	976
16	30959	16.448864412168	981
16	31318	16.498864412168	986
16	31335	16.548864412168	991
16	31689	16.598864412168	996
16	31706	16.648864412168	1001
16	32054	16.698864412168	1006
16	32071	16.748864412168	1011
16	32414	16.798864412168	1016
16	32431	16.848864412168	1021
16	32785	16.898864412168	1026
16	32802	16.948864412168	1031
16	33156	16.998864412168	1036
16	33173	17.048864412168	1041
16	33527	17.098864412168	1046
16	33544	17.148864412168	1051
16	33914	17.198864412168	1056
16	33931	17.248864412168	1061
16	34285	17.298864412168	1066
16	34302	17.348864412168	1071
16	34661	17.398864412168	1076
16	34678	17.448864412168	1081
16	35021	17.498864412168	1086
16	35038	17.548864412168	1091
16	35397	17.598864412168	1096
16	35414	17.648864412168	1101
16	35768	17.698864412168	1106
16	35785	17.748864412168	1111
16	36128	17.798864412168	1116
16	36145	17.848864412168	1121
16	36488	17.898864412168	1126
16	36505	17.948864412168	1131
16	36859	17.998864412168	1136
16	36876	18.048864412168	1141
16	37224	18.098864412168	1146
16	37241	18.148864412168	1151
16	37600	18.198864412168	1156
16	37617	18.248864412168	1161
16	37960	18.298864412168	1166
16	37977	18.348864412168	1171
16	38320	18.398864412168	1176
16	38337	18.448864412168	1181
16	38680	18.498864412168	1186
16	38697	18.548864412168	1191
16	39040	18.598864412168	1196
16	39057	18.648864412168	1201
16	39411	18.698864412168	1206
16	39428	18.748864412168	1211
16	39782	18.798864412168	1216
16	39799	18.848864412168	1221
16	40153	18.898864412168	1226
16	40170	18.948864412168	1231
16	40513	18.998864412168	1236
16	40530	19.048864412168	1241
16	40873	19.098864412168	1246
16	40890	19.148864412168	1251
16	41244	19.198864412168	1256
16	41261	19.248864412168	1261
16	41615	19.298864412168	1266
16	41632	19.348864412168	1271
16	41991	19.398864412168	1276
16	42008	19.448864412168	1281
16	42378	19.498864412168	1286
16	42395	19.548864412168	1291
16	42743	19.598864412168	1296
16	42760	19.648864412168	1301
16	43119	19.698864412168	1306
16	43136	19.748864412168	1311
16	43490	19.798864412168	1316
16	43507	19.848864412168	1321
16	43866	19.898864412168	1326
16	43883	19.948864412168	1331
16	44226	19.998864412168	1336
16	44243	20.048864412168	1341
16	44602	20.098864412168	1346
16	44619	20.148864412168	1351
16	44973	20.198864412168	1356
16	44990	20.248864412168	1361
16	45344	20.298864412168	1366
16	45361	20.348864412168	1371
16	45709	20.398864412168	1376
16	45726	20.448864412168	1381
16	46069	20.498864412168	1386
16	46086	20.548864412168	1391
16	46456	20.598864412168	1396
16	46473	20.648864412168	1401
16	46816	20.698864412168	1406
16	46833	20.748864412168	1411
16	47203	20.798864412168	1416
16	47220	20.848864412168	1421
16	47579	20.898864412168	1426
16	47596	20.948864412168	1431
16	47955	20.998864412168	1436
16	47972	21.048864412168	1441
16	48326	21.098864412168	1446
16	48343	21.148864412168	1451
16	48702	21.198864412168	1456
16	48719	21.248864412168	1461
16	49057	21.298864412168	1466
16	49074	21.348864412168	1471
16	49417	21.398864412168	1476
16	49434	21.448864412168	1481
16	49777	21.498864412168	1486
16	49794	21.548864412168	1491
16	50148	21.598864412168	1496
16	50165	21.648864412168	1501
16	50519	21.698864412168	1506
16	50536	21.748864412168	1511
16	50890	21.798864412168	1516
16	50907	21.848864412168	1521
16	51266	21.898864412168	1526
16	51283	21.948864412168	1531
16	51653	21.998864412168	1536
16	51670	22.048864412168	1541
16	52013	22.098864412168	1546
16	52030	22.148864412168	1551
16	52384	22.198864412168	1556
16	52401	22.248864412168	1561
16	52760	22.298864412168	1566
16	52777	22.348864412168	1571
16	53131	22.398864412168	1576
16	53148	22.448864412168	1581
16	53491	22.498864412168	1586
16	53508	22.548864412168	1591
16	53856	22.598864412168	1596
16	53873	22.648864412168	1601
16	54243	22.698864412168	1606
16	54260	22.748864412168	1611
16	54592	22.798864412168	1616
16	54609	22.848864412168	1621
16	54952	22.898864412168	1626
16	54969	22.948864412168	1631
16	55323	22.998864412168	1636
16	55340	23.048864412168	1641
16	55672	23.098864412168	1646
16	55689	23.148864412168	1651
16	56043	23.198864412168	1656
16	56060	23.248864412168	1661
16	56419	23.298864412168	1666
16	56436	23.348864412168	1671
16	56795	23.398864412168	1676
16	56812	23.448864412168	1681
16	57160	23.498864412168	1686
16	57177	23.548864412168	1691
16	57536	23.598864412168	1696
16	57553	23.648864412168	1701
16	57923	23.698864412168	1706
16	57940	23.748864412168	1711
16	58299	23.798864412168	1716
16	58316	23.848864412168	1721
16	58670	23.898864412168	1726
16	58687	23.948864412168	1731
16	59025	23.998864412168	1736
16	59042	24.048864412168	1741
16	59401	24.098864412168	1746
16	59418	24.148864412168	1751
16	59772	24.198864412168	1756
16	59789	24.248864412168	1761
16	60148	24.298864412168	1766
16	60165	24.348864412168	1771
16	60508	24.398864412168	1776
16	60525	24.448864412168	1781
16	60884	24.498864412168	1786
16	60901	24.548864412168	1791
16	61271	24.598864412168	1796
16	61288	24.648864412168	1801
16	61642	24.698864412168	1806
16	61659	24.748864412168	1811
16	62018	24.798864412168	1816
16	62035	24.848864412168	1821
16	62383	24.898864412168	1826
16	62400	24.948864412168	1831
16	62732	24.998864412168	1836
16	62749	25.048864412168	1841
16	63119	25.098864412168	1846
16	63136	25.148864412168	1851
16	63506	25.198864412168	1856
16	63523	25.248864412168	1861
16	63866	25.298864412168	1866
16	63883	25.348864412168	1871
16	64237	25.398864412168	1876
16	64254	25.448864412168	1881
16	64608	25.498864412168	1886
16	64625	25.548864412168	1891
16	64973	25.598864412168	1896
16	64990	25.648864412168	1901
16	65349	25.698864412168	1906
16	65366	25.748864412168	1911
16	65725	25.798864412168	1916
16	65742	25.848864412168	1921
16	66085	25.898864412168	1926
16	66102	25.948864412168	1931
16	66456	25.998864412168	1936
16	66473	26.048864412168	1941
16	66821	26.098864412168	1946
16	66838	26.148864412168	1951
16	67208	26.198864412168	1956
16	67225	26.248864412168	1961
16	67595	26.298864412168	1966
16	67612	26.348864412168	1971
16	67949	26.398864412168	1976
16	67966	26.448864412168	1981
16	68325	26.498864412168	1986
16	68342	26.548864412168	1991
16	68696	26.598864412168	1996
16	68713	26.648864412168	2001
16	69072	26.698864412168	2006
16	69089	26.748864412168	2011
16	69432	26.798864412168	2016
16	69449	26.848864412168	2021
16	69808	26.898864412168	2026
16	69825	26.948864412168	2031
16	70163	26.998864412168	2036
16	70180	27.048864412168	2041
16	70534	27.098864412168	2046
16	70551	27.148864412168	2051
16	70910	27.198864412168	2056
16	70927	27.248864412168	2061
16	71281	27.298864412168	2066
16	71298	27.348864412168	2071
16	71646	27.398864412168	2076
16	71663	27.448864412168	2081
16	71995	27.498864412168	2086
16	72012	27.548864412168	2091
16	72382	27.598864412168	2096
16	72399	27.648864412168	2101
16	72753	27.698864412168	2106
16	72770	27.748864412168	2111
16	73140	27.798864412168	2116
16	73157	27.848864412168	2121
16	73511	27.898864412168	2126
16	73528	27.948864412168	2131
16	73871	27.998864412168	2136
16	73888	28.048864412168	2141
16	74242	28.098864412168	2146
16	74259	28.148864412168	2151
16	74613	28.198864412168	2156
16	74630	28.248864412168	2161
16	74984	28.298864412168	2166
16	75001	28.348864412168	2171
16	75360	28.398864412168	2176
16	75377	28.448864412168	2181
16	75736	28.498864412168	2186
16	75753	28.548864412168	2191
16	76123	28.598864412168	2196
16	76140	28.648864412168	2201
16	76510	28.698864412168	2206
16	76527	28.748864412168	2211
16	76870	28.798864412168	2216
16	76887	28.848864412168	2221
16	77241	28.898864412168	2226
16	77258	28.948864412168	2231
16	77617	28.998864412168	2236
16	77634	29.048864412168	2241
16	77988	29.098864412168	2246
16	78005	29.148864412168	2251
16	78364	29.198864412168	2256
16	78381	29.248864412168	2261
16	78740	29.298864412168	2266
16	78757	29.348864412168	2271
16	79111	29.398864412168	2276
16	79128	29.448864412168	2281
16	79482	29.498864412168	2286
16	79499	29.548864412168	2291
16	79858	29.598864412168	2296
16	79875	29.648864412168	2301
16	80229	29.698864412168	2306
16	80246	29.748864412168	2311
16	80600	29.798864412168	2316
16	80617	29.848864412168	2321
16	80960	29.898864412168	2326
16	80977	29.948864412168	2331
16	81331	29.998864412168	2336
16	81348	30.048864412168	2341
16	81686	30.098864412168	2346
16	81703	30.148864412168	2351
16	82057	30.198864412168	2356
16	82074	30.248864412168	2361
16	82406	30.298864412168	2366
16	82423	30.348864412168	2371
16	82793	30.398864412168	2376
16	82810	30.448864412168	2381
16	83153	30.498864412168	2386
16	83170	30.548864412168	2391
16	83529	30.598864412168	2396
16	83546	30.648864412168	2401
16	83900	30.698864412168	2406
16	83917	30.748864412168	2411
16	84276	30.798864412168	2416
16	84293	30.848864412168	2421
16	84636	30.898864412168	2426
16	84653	30.948864412168	2431
16	85023	30.998864412168	2436
16	85040	31.048864412168	2441
16	85394	31.098864412168	2446
16	85411	31.148864412168	2451
16	85770	31.198864412168	2456
16	85787	31.248864412168	2461
16	86130	31.298864412168	2466
16	86147	31.348864412168	2471
16	86517	31.398864412168	2476
16	86534	31.448864412168	2481
16	86893	31.498864412168	2486
16	86910	31.548864412168	2491
16	87253	31.598864412168	2496
16	87270	31.648864412168	2501
16	87640	31.698864412168	2506
16	87657	31.748864412168	2511
16	88000	31.798864412168	2516
16	88017	31.848864412168	2521
16	88371	31.898864412168	2526
16	88388	31.948864412168	2531
16	88731	31.998864412168	2536
16	88748	32.048864412168	2541
16	89102	32.098864412168	2546
16	89119	32.148864412168	2551
16	89473	32.198864412168	2556
16	89490	32.248864412168	2561
16	89833	32.298864412168	2566
16	89850	32.348864412168	2571
16	90204	32.398864412168	2576
16	90221	32.448864412168	2581
16	90564	32.498864412168	2586
16	90581	32.548864412168	2591
16	90913	32.598864412168	2596
16	90930	32.648864412168	2601
16	91284	32.698864412168	2606
16	91301	32.748864412168	2611
16	91644	32.798864412168	2616
16	91661	32.848864412168	2621
16	92015	32.898864412168	2626
16	92032	32.948864412168	2631
16	92375	32.998864412168	2636
16	92392	33.048864412168	2641
16	92746	33.098864412168	2646
16	92763	33.148864412168	2651
16	93117	33.198864412168	2656
16	93134	33.248864412168	2661
16	93488	33.298864412168	2666
16	93505	33.348864412168	2671
16	93848	33.398864412168	2676
16	93865	33.448864412168	2681
16	94208	33.498864412168	2686
16	94225	33.548864412168	2691
16	94568	33.598864412168	2696
16	94585	33.648864412168	2701
16	94944	33.698864412168	2706
16	94961	33.748864412168	2711
16	95315	33.798864412168	2716
16	95332	33.848864412168	2721
16	95691	33.898864412168	2726
16	95708	33.948864412168	2731
16	96067	33.998864412168	2736
16	96084	34.048864412168	2741
16	96443	34.098864412168	2746
16	96460	34.148864412168	2751
16	96819	34.198864412168	2756
16	96836	34.248864412168	2761
16	97195	34.298864412168	2766
16	97212	34.348864412168	2771
16	97566	34.398864412168	2776
16	97583	34.448864412168	2781
16	97953	34.498864412168	2786
16	97970	34.548864412168	2791
16	98340	34.598864412168	2796
16	98357	34.648864412168	2801
16	98711	34.698864412168	2806
16	98728	34.748864412168	2811
16	99071	34.798864412168	2816
16	99088	34.848864412168	2821
16	99442	34.898864412168	2826
16	99459	34.948864412168	2831
16	99818	34.998864412168	2836
16	99835	35.048864412168	2841
16	100183	35.098864412168	2846
16	100200	35.148864412168	2851
16	100554	35.198864412168	2856
16	100571	35.248864412168	2861
16	100925	35.298864412168	2866
16	100942	35.348864412168	2871
16	101285	35.398864412168	2876
16	101302	35.448864412168	2881
16	101634	35.498864412168	2886
16	101651	35.548864412168	2891
16	102021	35.598864412168	2896
16	102038	35.648864412168	2901
16	102392	35.698864412168	2906
16	102409	35.748864412168	2911
16	102752	35.798864412168	2916
16	102769	35.848864412168	2921
16	103128	35.898864412168	2926
16	103145	35.948864412168	2931
16	103488	35.998864412168	2936
16	103505	36.048864412168	2941
16	103848	36.098864412168	2946
16	103865	36.148864412168	2951
16	104219	36.198864412168	2956
16	104236	36.248864412168	2961
16	104579	36.298864412168	2966
16	104596	36.348864412168	2971
16	104939	36.398864412168	2976
16	104956	36.448864412168	2981
16	105310	36.498864412168	2986
16	105327	36.548864412168	2991
16	105681	36.598864412168	2996
16	105698	36.648864412168	3001
16	106068	36.698864412168	3006
16	106085	36.748864412168	3011
16	106439	36.798864412168	3016
16	106456	36.848864412168	3021
16	106815	36.898864412168	3026
16	106832	36.948864412168	3031
16	107175	36.998864412168	3036
16	107192	37.048864412168	3041
16	107546	37.098864412168	3046
16	107563	37.148864412168	3051
16	107917	37.198864412168	3056
16	107934	37.248864412168	3061
16	108293	37.298864412168	3066
16	108310	37.348864412168	3071
16	108680	37.398864412168	3076
16	108697	37.448864412168	3081
16	109051	37.498864412168	3086
16	109068	37.548864412168	3091
16	109438	37.598864412168	3096
16	109455	37.648864412168	3101
16	109814	37.698864412168	3106
16	109831	37.748864412168	3111
16	110169	37.798864412168	3116
16	110186	37.848864412168	3121
16	110545	37.898864412168	3126
16	110562	37.948864412168	3131
16	110932	37.998864412168	3136
16	110949	38.048864412168	3141
16	111303	38.098864412168	3146
16	111320	38.148864412168	3151
16	111674	38.198864412168	3156
16	111691	38.248864412168	3161
16	112023	38.298864412168	3166
16	112040	38.348864412168	3171
16	112394	38.398864412168	3176
16	112411	38.448864412168	3181
16	112765	38.498864412168	3186
16	112782	38.548864412168	3191
16	113136	38.598864412168	3196
16	113153	38.648864412168	3201
16	113507	38.698864412168	3206
16	113524	38.748864412168	3211
16	113862	38.798864412168	3216
16	113879	38.848864412168	3221
16	114222	38.898864412168	3226
16	114239	38.948864412168	3231
16	114593	38.998864412168	3236
16	114610	39.048864412168	3241
16	114980	39.098864412168	3246
16	114997	39.148864412168	3251
16	115351	39.198864412168	3256
16	115368	39.248864412168	3261
16	115727	39.298864412168	3266
16	115744	39.348864412168	3271
16	116098	39.398864412168	3276
16	116115	39.448864412168	3281
16	116485	39.498864412168	3286
16	116502	39.548864412168	3291
16	116845	39.598864412168	3296
16	116862	39.648864412168	3301
16	117221	39.698864412168	3306
16	117238	39.748864412168	3311
16	117597	39.798864412168	3316
16	117614	39.848864412168	3321
16	117973	39.898864412168	3326
16	117990	39.948864412168	3331
16	118333	39.998864412168	3336
16	118350	40.048864412168	3341
16	118698	40.098864412168	3346
16	118715	40.148864412168	3351
16	119074	40.198864412168	3356
16	119091	40.248864412168	3361
16	119429	40.298864412168	3366
16	119446	40.348864412168	3371
16	119784	40.398864412168	3376
16	119801	40.448864412168	3381
16	120160	40.498864412168	3386
16	120177	40.548864412168	3391
16	120536	40.598864412168	3396
16	120553	40.648864412168	3401
16	120923	40.698864412168	3406
16	120940	40.748864412168	3411
16	121294	40.798864412168	3416
16	121311	40.848864412168	3421
16	121643	40.898864412168	3426
16	121660	40.948864412168	3431
16	122014	40.998864412168	3436
16	122031	41.048864412168	3441
16	122390	41.098864412168	3446
16	122407	41.148864412168	3451
16	122745	41.198864412168	3456
16	122762	41.248864412168	3461
16	123116	41.298864412168	3466
16	123133	41.348864412168	3471
16	123476	41.398864412168	3476
16	123493	41.448864412168	3481
16	123825	41.498864412168	3486
16	123842	41.548864412168	3491
16	124196	41.598864412168	3496
16	124213	41.648864412168	3501
16	124567	41.698864412168	3506
16	124584	41.748864412168	3511
16	124938	41.798864412168	3516
16	124955	41.848864412168	3521
16	125303	41.898864412168	3526
16	125320	41.948864412168	3531
16	125674	41.998864412168	3536
16	125691	42.048864412168	3541
16	126050	42.098864412168	3546
16	126067	42.148864412168	3551
16	126421	42.198864412168	3556
16	126438	42.248864412168	3561
16	126792	42.298864412168	3566
16	126809	42.348864412168	3571
16	127152	42.398864412168	3576
16	127169	42.448864412168	3581
16	127507	42.498864412168	3586
16	127524	42.548864412168	3591
16	127878	42.598864412168	3596
16	127895	42.648864412168	3601
16	128249	42.698864412168	3606
16	128266	42.748864412168	3611
16	128625	42.798864412168	3616
16	128642	42.848864412168	3621
16	128996	42.898864412168	3626
16	129013	42.948864412168	3631
16	129367	42.998864412168	3636
16	129384	43.048864412168	3641
16	129754	43.098864412168	3646
16	129771	43.148864412168	3651
16	130125	43.198864412168	3656
16	130142	43.248864412168	3661
16	130485	43.298864412168	3666
16	130502	43.348864412168	3671
16	130861	43.398864412168	3676
16	130878	43.448864412168	3681
16	131232	43.498864412168	3686
16	131249	43.548864412168	3691
16	131608	43.598864412168	3696
16	131625	43.648864412168	3701
16	131973	43.698864412168	3706
16	131990	43.748864412168	3711
16	132338	43.798864412168	3716
16	132355	43.848864412168	3721
16	132698	43.898864412168	3726
16	132715	43.948864412168	3731
16	133069	43.998864412168	3736
16	133086	44.048864412168	3741
16	133424	44.098864412168	3746
16	133441	44.148864412168	3751
16	133784	44.198864412168	3756
16	133801	44.248864412168	3761
16	134144	44.298864412168	3766
16	134161	44.348864412168	3771
16	134504	44.398864412168	3776
16	134521	44.448864412168	3781
16	134864	44.498864412168	3786
16	134881	44.548864412168	3791
16	135224	44.598864412168	3796
16	135241	44.648864412168	3801
16	135595	44.698864412168	3806
16	135612	44.748864412168	3811
16	135955	44.798864412168	3816
16	135972	44.848864412168	3821
16	136326	44.898864412168	3826
16	136343	44.948864412168	3831
16	136702	44.998864412168	3836
16	136719	45.048864412168	3841
16	137067	45.098864412168	3846
16	137084	45.148864412168	3851
16	137427	45.198864412168	3856
16	137444	45.248864412168	3861
16	137782	45.298864412168	3866
16	137799	45.348864412168	3871
16	138158	45.398864412168	3876
16	138175	45.448864412168	3881
16	138529	45.498864412168	3886
16	138546	45.548864412168	3891
16	138900	45.598864412168	3896
16	138917	45.648864412168	3901
16	139271	45.698864412168	3906
16	139288	45.748864412168	3911
16	139642	45.798864412168	3916
16	139659	45.848864412168	3921
16	140013	45.898864412168	3926
16	140030	45.948864412168	3931
16	140384	45.998864412168	3936
16	140401	46.048864412168	3941
16	140755	46.098864412168	3946
16	140772	46.148864412168	3951
16	141115	46.198864412168	3956
16	141132	46.248864412168	3961
16	141491	46.298864412168	3966
16	141508	46.348864412168	3971
16	141856	46.398864412168	3976
16	141873	46.448864412168	3981
16	142227	46.498864412168	3986
16	142244	46.548864412168	3991
16	142587	46.598864412168	3996
16	142604	46.648864412168	4001
16	142958	46.698864412168	4006
16	142975	46.748864412168	4011
16	143329	46.798864412168	4016
16	143346	46.848864412168	4021
16	143716	46.898864412168	4026
16	143733	46.948864412168	4031
16	144076	46.998864412168	4036
16	144093	47.048864412168	4041
16	144441	47.098864412168	4046
16	144458	47.148864412168	4051
16	144812	47.198864412168	4056
16	144829	47.248864412168	4061
16	145183	47.298864412168	4066
16	145200	47.348864412168	4071
16	145570	47.398864412168	4076
16	145587	47.448864412168	4081
16	145946	47.498864412168	4086
16	145963	47.548864412168	4091
16	146311	47.598864412168	4096
16	146328	47.648864412168	4101
16	146682	47.698864412168	4106
16	146699	47.748864412168	4111
16	147042	47.798864412168	4116
16	147059	47.848864412168	4121
16	147413	47.898864412168	4126
16	147430	47.948864412168	4131
16	147800	47.998864412168	4136
16	147817	48.048864412168	4141
16	148160	48.098864412168	4146
16	148177	48.148864412168	4151
16	148536	48.198864412168	4156
16	148553	48.248864412168	4161
16	148891	48.298864412168	4166
16	148908	48.348864412168	4171
16	149267	48.398864412168	4176
16	149284	48.448864412168	4181
16	149654	48.498864412168	4186
16	149671	48.548864412168	4191
16	150030	48.598864412168	4196
16	150047	48.648864412168	4201
16	150390	48.698864412168	4206
16	150407	48.748864412168	4211
16	150766	48.798864412168	4216
16	150783	48.848864412168	4221
16	151142	48.898864412168	4226
16	151159	48.948864412168	4231
16	151502	48.998864412168	4236
16	151519	49.048864412168	4241
16	151862	49.098864412168	4246
16	151879	49.148864412168	4251
16	152227	49.198864412168	4256
16	152244	49.248864412168	4261
16	152603	49.298864412168	4266
16	152620	49.348864412168	4271
16	152963	49.398864412168	4276
16	152980	49.448864412168	4281
16	153334	49.498864412168	4286
16	153351	49.548864412168	4291
16	153694	49.598864412168	4296
16	153711	49.648864412168	4301
16	154070	49.698864412168	4306
16	154087	49.748864412168	4311
16	154441	49.798864412168	4316
16	154458	49.848864412168	4321
16	154812	49.898864412168	4326
16	154829	49.948864412168	4331
16	155183	49.998864412168	4336
16	155200	50.048864412168	4341
16	155543	50.098864412168	4346
16	155560	50.148864412168	4351
16	155903	50.198864412168	4356
16	155920	50.248864412168	4361
16	156258	50.298864412168	4366
16	156275	50.348864412168	4371
16	156634	50.398864412168	4376
16	156651	50.448864412168	4381
16	157005	50.498864412168	4386
16	157022	50.548864412168	4391
16	157381	50.598864412168	4396
16	157398	50.648864412168	4401
16	157741	50.698864412168	4406
16	157758	50.748864412168	4411
16	158112	50.798864412168	4416
16	158129	50.848864412168	4421
16	158472	50.898864412168	4426
16	158489	50.948864412168	4431
16	158827	50.998864412168	4436
16	158844	51.048864412168	4441
16	159187	51.098864412168	4446
16	159204	51.148864412168	4451
16	159558	51.198864412168	4456
16	159575	51.248864412168	4461
16	159934	51.298864412168	4466
16	159951	51.348864412168	4471
16	160299	51.398864412168	4476
16	160316	51.448864412168	4481
16	160675	51.498864412168	4486
16	160692	51.548864412168	4491
16	161046	51.598864412168	4496
16	161063	51.648864412168	4501
16	161417	51.698864412168	4506
16	161434	51.748864412168	4511
16	161788	51.798864412168	4516
16	161805	51.848864412168	4521
16	162164	51.898864412168	4526
16	162181	51.948864412168	4531
16	162524	51.998864412168	4536
16	162541	52.048864412168	4541
16	162873	52.098864412168	4546
16	162890	52.148864412168	4551
16	163244	52.198864412168	4556
16	163261	52.248864412168	4561
16	163615	52.298864412168	4566
16	163632	52.348864412168	4571
16	163991	52.398864412168	4576
16	164008	52.448864412168	4581
16	164378	52.498864412168	4586
16	164395	52.548864412168	4591
16	164754	52.598864412168	4596
16	164771	52.648864412168	4601
16	165114	52.698864412168	4606
16	165131	52.748864412168	4611
16	165474	52.798864412168	4616
16	165491	52.848864412168	4621
16	165845	52.898864412168	4626
16	165862	52.948864412168	4631
16	166221	52.998864412168	4636
16	166238	53.048864412168	4641
16	166586	53.098864412168	4646
16	166603	53.148864412168	4651
16	166973	53.198864412168	4656
16	166990	53.248864412168	4661
16	167328	53.298864412168	4666
16	167345	53.348864412168	4671
16	167704	53.398864412168	4676
16	167721	53.448864412168	4681
16	168091	53.498864412168	4686
16	168108	53.548864412168	4691
16	168478	53.598864412168	4696
16	168495	53.648864412168	4701
16	168854	53.698864412168	4706
16	168871	53.748864412168	4711
16	169241	53.798864412168	4716
16	169258	53.848864412168	4721
16	169617	53.898864412168	4726
16	169634	53.948864412168	4731
16	169988	53.998864412168	4736
16	170005	54.048864412168	4741
16	170364	54.098864412168	4746
16	170381	54.148864412168	4751
16	170724	54.198864412168	4756
16	170741	54.248864412168	4761
16	171100	54.298864412168	4766
16	171117	54.348864412168	4771
16	171455	54.398864412168	4776
16	171472	54.448864412168	4781
16	171826	54.498864412168	4786
16	171843	54.548864412168	4791
16	172186	54.598864412168	4796
16	172203	54.648864412168	4801
16	172562	54.698864412168	4806
16	172579	54.748864412168	4811
16	172933	54.798864412168	4816
16	172950	54.848864412168	4821
16	173320	54.898864412168	4826
16	173337	54.948864412168	4831
16	173691	54.998864412168	4836
16	173708	55.048864412168	4841
16	174067	55.098864412168	4846
16	174084	55.148864412168	4851
16	174427	55.198864412168	4856
16	174444	55.248864412168	4861
16	174803	55.298864412168	4866
16	174820	55.348864412168	4871
16	175190	55.398864412168	4876
16	175207	55.448864412168	4881
16	175577	55.498864412168	4886
16	175594	55.548864412168	4891
16	175953	55.598864412168	4896
16	175970	55.648864412168	4901
16	176313	55.698864412168	4906
16	176330	55.748864412168	4911
16	176689	55.798864412168	4916
16	176706	55.848864412168	4921
16	177049	55.898864412168	4926
16	177066	55.948864412168	4931
16	177409	55.998864412168	4936
16	177426	56.048864412168	4941
16	177758	56.098864412168	4946
16	177775	56.148864412168	4951
16	178145	56.198864412168	4956
16	178162	56.248864412168	4961
16	178505	56.298864412168	4966
16	178522	56.348864412168	4971
16	178876	56.398864412168	4976
16	178893	56.448864412168	4981
16	179252	56.498864412168	4986
16	179269	56.548864412168	4991
16	179623	56.598864412168	4996
16	179640	56.648864412168	5001
16	179983	56.698864412168	5006
16	180000	56.748864412168	5011
16	180354	56.798864412168	5016
16	180371	56.848864412168	5021
16	180730	56.898864412168	5026
16	180747	56.948864412168	5031
16	181106	56.998864412168	5036
16	181123	57.048864412168	5041
16	181477	57.098864412168	5046
16	181494	57.148864412168	5051
16	181848	57.198864412168	5056
16	181865	57.248864412168	5061
16	182219	57.298864412168	5066
16	182236	57.348864412168	5071
16	182584	57.398864412168	5076
16	182601	57.448864412168	5081
16	182960	57.498864412168	5086
16	182977	57.548864412168	5091
16	183347	57.598864412168	5096
16	183364	57.648864412168	5101
16	183723	57.698864412168	5106
16	183740	57.748864412168	5111
16	184094	57.798864412168	5116
16	184111	57.848864412168	5121
16	184454	57.898864412168	5126
16	184471	57.948864412168	5131
16	184825	57.998864412168	5136
16	184842	58.048864412168	5141
16	185185	58.098864412168	5146
16	185202	58.148864412168	5151
16	185556	58.198864412168	5156
16	185573	58.248864412168	5161
16	185927	58.298864412168	5166
16	185944	58.348864412168	5171
16	186287	58.398864412168	5176
16	186304	58.448864412168	5181
16	186674	58.498864412168	5186
16	186691	58.548864412168	5191
16	187061	58.598864412168	5196
16	187078	58.648864412168	5201
16	187432	58.698864412168	5206
16	187449	58.748864412168	5211
16	187819	58.798864412168	5216
16	187836	58.848864412168	5221
16	188190	58.898864412168	5226
16	188207	58.948864412168	5231
16	188550	58.998864412168	5236
16	188567	59.048864412168	5241
16	188937	59.098864412168	5246
16	188954	59.148864412168	5251
16	189324	59.198864412168	5256
16	189341	59.248864412168	5261
16	189700	59.298864412168	5266
16	189717	59.348864412168	5271
16	190076	59.398864412168	5276
16	190093	59.448864412168	5281
16	190452	59.498864412168	5286
16	190469	59.548864412168	5291
16	190828	59.598864412168	5296
16	190845	59.648864412168	5301
16	191188	59.698864412168	5306
16	191205	59.748864412168	5311
16	191553	59.798864412168	5316
16	191570	59.848864412168	5321
16	191924	59.898864412168	5326
16	191941	59.948864412168	5331
16	192311	59.998864412168	5336
16	192328	60.048864412168	5341
16	192666	60.098864412168	5346
16	192683	60.148864412168	5351
16	193053	60.198864412168	5356
16	193070	60.248864412168	5361
16	193424	60.298864412168	5366
16	193441	60.348864412168	5371
16	193784	60.398864412168	5376
16	193801	60.448864412168	5381
16	194160	60.498864412168	5386
16	194177	60.548864412168	5391
16	194520	60.598864412168	5396
16	194537	60.648864412168	5401
16	194891	60.698864412168	5406
16	194908	60.748864412168	5411
16	195262	60.798864412168	5416
16	195279	60.848864412168	5421
16	195638	60.898864412168	5426
16	195655	60.948864412168	5431
16	196025	60.998864412168	5436
[...]
14	135959	44.800051808597	0.002
14	135975	44.850051808597	0.001
14	136330	44.900051808597	0.002
14	136346	44.950051808597	0.001
14	136706	45.000051808597	0.002
14	136722	45.050051808597	0.001
14	137071	45.100051808597	0.002
14	137087	45.150051808597	0.001
14	137431	45.200051808597	0.002
14	137447	45.250051808597	0.001
14	137786	45.300051808597	0.002
14	137802	45.350051808597	0.001
14	138162	45.400051808597	0.002
14	138178	45.450051808597	0.001
14	138533	45.500051808597	0.002
14	138549	45.550051808597	0.001
14	138904	45.600051808597	0.002
14	138920	45.650051808597	0.001
14	139275	45.700051808597	0.002
14	139291	45.750051808597	0.001
14	139646	45.800051808597	0.002
14	139662	45.850051808597	0.001
14	140017	45.900051808597	0.002
14	140033	45.950051808597	0.001
14	140388	46.000051808597	0.002
14	140404	46.050051808597	0.001
14	140759	46.100051808597	0.002
14	140775	46.150051808597	0.001
14	141119	46.200051808597	0.002
14	141135	46.250051808597	0.001
14	141495	46.300051808597	0.002
14	141511	46.350051808597	0.001
14	141860	46.400051808597	0.002
14	141876	46.450051808597	0.001
14	142231	46.500051808597	0.002
14	142247	46.550051808597	0.001
14	142591	46.600051808597	0.002
14	142607	46.650051808597	0.001
14	142962	46.700051808597	0.002
14	142978	46.750051808597	0.001
14	143333	46.800051808597	0.002
14	143349	46.850051808597	0.001
14	143720	46.900051808597	0.002
14	143736	46.950051808597	0.001
14	144080	47.000051808597	0.002
14	144096	47.050051808597	0.001
14	144445	47.100051808597	0.002
14	144461	47.150051808597	0.001
14	144816	47.200051808597	0.002
14	144832	47.250051808597	0.001
14	145187	47.300051808597	0.002
14	145203	47.350051808597	0.001
14	145574	47.400051808597	0.002
14	145590	47.450051808597	0.001
14	145950	47.500051808597	0.002
14	145966	47.550051808597	0.001
14	146315	47.600051808597	0.002
14	146331	47.650051808597	0.001
14	146686	47.700051808597	0.002
14	146702	47.750051808597	0.001
14	147046	47.800051808597	0.002
14	147062	47.850051808597	0.001
14	147417	47.900051808597	0.002
14	147433	47.950051808597	0.001
14	147804	48.000051808597	0.002
14	147820	48.050051808597	0.001
14	148164	48.100051808597	0.002
14	148180	48.150051808597	0.001
14	148540	48.200051808597	0.002
14	148556	48.250051808597	0.001
14	148895	48.300051808597	0.002
14	148911	48.350051808597	0.001
14	149271	48.400051808597	0.002
14	149287	48.450051808597	0.001
14	149658	48.500051808597	0.002
14	149674	48.550051808597	0.001
14	150034	48.600051808597	0.002
14	150050	48.650051808597	0.001
14	150394	48.700051808597	0.002
14	150410	48.750051808597	0.001
14	150770	48.800051808597	0.002
14	150786	48.850051808597	0.001
14	151146	48.900051808597	0.002
14	151162	48.950051808597	0.001
14	151506	49.000051808597	0.002
14	151522	49.050051808597	0.001
14	151866	49.100051808597	0.002
14	151882	49.150051808597	0.001
14	152231	49.200051808597	0.002
14	152247	49.250051808597	0.001
14	152607	49.300051808597	0.002
14	152623	49.350051808597	0.001
14	152967	49.400051808597	0.002
14	152983	49.450051808597	0.001
14	153338	49.500051808597	0.002
14	153354	49.550051808597	0.001
14	153698	49.600051808597	0.002
14	153714	49.650051808597	0.001
14	154074	49.700051808597	0.002
14	154090	49.750051808597	0.001
14	154445	49.800051808597	0.002
14	154461	49.850051808597	0.001
14	154816	49.900051808597	0.002
14	154832	49.950051808597	0.001
14	155187	50.000051808597	0.002
14	155203	50.050051808597	0.001
14	155547	50.100051808597	0.002
14	155563	50.150051808597	0.001
14	155907	50.200051808597	0.002
14	155923	50.250051808597	0.001
14	156262	50.300051808597	0.002
14	156278	50.350051808597	0.001
14	156638	50.400051808597	0.002
14	156654	50.450051808597	0.001
14	157009	50.500051808597	0.002
14	157025	50.550051808597	0.001
14	157385	50.600051808597	0.002
14	157401	50.650051808597	0.001
14	157745	50.700051808597	0.002
14	157761	50.750051808597	0.001
14	158116	50.800051808597	0.002
14	158132	50.850051808597	0.001
14	158476	50.900051808597	0.002
14	158492	50.950051808597	0.001
14	158831	51.000051808597	0.002
14	158847	51.050051808597	0.001
14	159191	51.100051808597	0.002
14	159207	51.150051808597	0.001
14	159562	51.200051808597	0.002
14	159578	51.250051808597	0.001
14	159938	51.300051808597	0.002
14	159954	51.350051808597	0.001
14	160303	51.400051808597	0.002
14	160319	51.450051808597	0.001
14	160679	51.500051808597	0.002
14	160695	51.550051808597	0.001
14	161050	51.600051808597	0.002
14	161066	51.650051808597	0.001
14	161421	51.700051808597	0.002
14	161437	51.750051808597	0.001
14	161792	51.800051808597	0.002
14	161808	51.850051808597	0.001
14	162168	51.900051808597	0.002
14	162184	51.950051808597	0.001
14	162528	52.000051808597	0.002
14	162544	52.050051808597	0.001
14	162877	52.100051808597	0.002
14	162893	52.150051808597	0.001
14	163248	52.200051808597	0.002
14	163264	52.250051808597	0.001
14	163619	52.300051808597	0.002
14	163635	52.350051808597	0.001
14	163995	52.400051808597	0.002
14	164011	52.450051808597	0.001
14	164382	52.500051808597	0.002
14	164398	52.550051808597	0.001
14	164758	52.600051808597	0.002
14	164774	52.650051808597	0.001
14	165118	52.700051808597	0.002
14	165134	52.750051808597	0.001
14	165478	52.800051808597	0.002
14	165494	52.850051808597	0.001
14	165849	52.900051808597	0.002
14	165865	52.950051808597	0.001
14	166225	53.000051808597	0.002
14	166241	53.050051808597	0.001
14	166590	53.100051808597	0.002
14	166606	53.150051808597	0.001
14	166977	53.200051808597	0.002
14	166993	53.250051808597	0.001
14	167332	53.300051808597	0.002
14	167348	53.350051808597	0.001
14	167708	53.400051808597	0.002
14	167724	53.450051808597	0.001
14	168095	53.500051808597	0.002
14	168111	53.550051808597	0.001
14	168482	53.600051808597	0.002
14	168498	53.650051808597	0.001
14	168858	53.700051808597	0.002
14	168874	53.750051808597	0.001
14	169245	53.800051808597	0.002
14	169261	53.850051808597	0.001
14	169621	53.900051808597	0.002
14	169637	53.950051808597	0.001
14	169992	54.000051808597	0.002
14	170008	54.050051808597	0.001
14	170368	54.100051808597	0.002
14	170384	54.150051808597	0.001
14	170728	54.200051808597	0.002
14	170744	54.250051808597	0.001
14	171104	54.300051808597	0.002
14	171120	54.350051808597	0.001
14	171459	54.400051808597	0.002
14	171475	54.450051808597	0.001
14	171830	54.500051808597	0.002
14	171846	54.550051808597	0.001
14	172190	54.600051808597	0.002
14	172206	54.650051808597	0.001
14	172566	54.700051808597	0.002
14	172582	54.750051808597	0.001
14	172937	54.800051808597	0.002
14	172953	54.850051808597	0.001
14	173324	54.900051808597	0.002
14	173340	54.950051808597	0.001
14	173695	55.000051808597	0.002
14	173711	55.050051808597	0.001
14	174071	55.100051808597	0.002
14	174087	55.150051808597	0.001
14	174431	55.200051808597	0.002
14	174447	55.250051808597	0.001
14	174807	55.300051808597	0.002
14	174823	55.350051808597	0.001
14	175194	55.400051808597	0.002
14	175210	55.450051808597	0.001
14	175581	55.500051808597	0.002
14	175597	55.550051808597	0.001
14	175957	55.600051808597	0.002
14	175973	55.650051808597	0.001
14	176317	55.700051808597	0.002
14	176333	55.750051808597	0.001
14	176693	55.800051808597	0.002
14	176709	55.850051808597	0.001
14	177053	55.900051808597	0.002
14	177069	55.950051808597	0.001
14	177413	56.000051808597	0.002
14	177429	56.050051808597	0.001
14	177762	56.100051808597	0.002
14	177778	56.150051808597	0.001
14	178149	56.200051808597	0.002
14	178165	56.250051808597	0.001
14	178509	56.300051808597	0.002
14	178525	56.350051808597	0.001
14	178880	56.400051808597	0.002
14	178896	56.450051808597	0.001
14	179256	56.500051808597	0.002
14	179272	56.550051808597	0.001
14	179627	56.600051808597	0.002
14	179643	56.650051808597	0.001
14	179987	56.700051808597	0.002
14	180003	56.750051808597	0.001
14	180358	56.800051808597	0.002
14	180374	56.850051808597	0.001
14	180734	56.900051808597	0.002
14	180750	56.950051808597	0.001
14	181110	57.000051808597	0.002
14	181126	57.050051808597	0.001
14	181481	57.100051808597	0.002
14	181497	57.150051808597	0.001
14	181852	57.200051808597	0.002
14	181868	57.250051808597	0.001
14	182223	57.300051808597	0.002
14	182239	57.350051808597	0.001
14	182588	57.400051808597	0.002
14	182604	57.450051808597	0.001
14	182964	57.500051808597	0.002
14	182980	57.550051808597	0.001
14	183351	57.600051808597	0.002
14	183367	57.650051808597	0.001
14	183727	57.700051808597	0.002
14	183743	57.750051808597	0.001
14	184098	57.800051808597	0.002
14	184114	57.850051808597	0.001
14	184458	57.900051808597	0.002
14	184474	57.950051808597	0.001
14	184829	58.000051808597	0.002
14	184845	58.050051808597	0.001
14	185189	58.100051808597	0.002
14	185205	58.150051808597	0.001
14	185560	58.200051808597	0.002
14	185576	58.250051808597	0.001
14	185931	58.300051808597	0.002
14	185947	58.350051808597	0.001
14	186291	58.400051808597	0.002
14	186307	58.450051808597	0.001
14	186678	58.500051808597	0.002
14	186694	58.550051808597	0.001
14	187065	58.600051808597	0.002
14	187081	58.650051808597	0.001
14	187436	58.700051808597	0.002
14	187452	58.750051808597	0.001
14	187823	58.800051808597	0.002
14	187839	58.850051808597	0.001
14	188194	58.900051808597	0.002
14	188210	58.950051808597	0.001
14	188554	59.000051808597	0.002
14	188570	59.050051808597	0.001
14	188941	59.100051808597	0.002
14	188957	59.150051808597	0.001
14	189328	59.200051808597	0.002
14	189344	59.250051808597	0.001
14	189704	59.300051808597	0.002
14	189720	59.350051808597	0.001
14	190080	59.400051808597	0.002
14	190096	59.450051808597	0.001
14	190456	59.500051808597	0.002
14	190472	59.550051808597	0.001
14	190832	59.600051808597	0.002
14	190848	59.650051808597	0.001
14	191192	59.700051808597	0.002
14	191208	59.750051808597	0.001
14	191557	59.800051808597	0.002
14	191573	59.850051808597	0.001
14	191928	59.900051808597	0.002
14	191944	59.950051808597	0.001
14	192315	60.000051808597	0.002
14	192331	60.050051808597	0.001
14	192670	60.100051808597	0.002
14	192686	60.150051808597	0.001
14	193057	60.200051808597	0.002
14	193073	60.250051808597	0.001
14	193428	60.300051808597	0.002
14	193444	60.350051808597	0.001
14	193788	60.400051808597	0.002
14	193804	60.450051808597	0.001
14	194164	60.500051808597	0.002
14	194180	60.550051808597	0.001
14	194524	60.600051808597	0.002
14	194540	60.650051808597	0.001
14	194895	60.700051808597	0.002
14	194911	60.750051808597	0.001
14	195266	60.800051808597	0.002
14	195282	60.850051808597	0.001
14	195642	60.900051808597	0.002
14	195658	60.950051808597	0.001
14	196029	61.000051808597	0.002
14	196045	61.050051808597	0.001
14	196400	61.100051808597	0.002
14	196416	61.150051808597	0.001
14	196760	61.200051808597	0.002
14	196776	61.250051808597	0.001
14	197131	61.300051808597	0.002
14	197147	61.350051808597	0.001
14	197507	61.400051808597	0.002
14	197523	61.450051808597	0.001
14	197883	61.500051808597	0.002
14	197899	61.550051808597	0.001
14	198270	61.600051808597	0.002
14	198286	61.650051808597	0.001
14	198656	61.700051808597	0.002
14	198669	61.750051808597	0.001
14	198918	61.800051808597	0.002
14	198931	61.850051808597	0.001
14	199193	61.900051808597	0.002
14	199206	61.950051808597	0.001
14	199468	62.000051808597	0.002
14	199481	62.050051808597	0.001
14	199730	62.100051808597	0.002
14	199743	62.150051808597	0.001
14	199983	62.200051808597	0.002
14	199996	62.250051808597	0.001
14	200245	62.300051808597	0.002
14	200258	62.350051808597	0.001
14	200520	62.400051808597	0.002
14	200533	62.450051808597	0.001
14	200782	62.500051808597	0.002
14	200795	62.550051808597	0.001
14	201044	62.600051808597	0.002
14	201057	62.650051808597	0.001
14	201306	62.700051808597	0.002
14	201319	62.750051808597	0.001
14	201568	62.800051808597	0.002
14	201581	62.850051808597	0.001
14	201843	62.900051808597	0.002
14	201856	62.950051808597	0.001
14	202096	63.000051808597	0.002
14	202109	63.050051808597	0.001
14	202358	63.100051808597	0.002
14	202371	63.150051808597	0.001
14	202620	63.200051808597	0.002
14	202633	63.250051808597	0.001
14	202882	63.300051808597	0.002
14	202895	63.350051808597	0.001
14	203144	63.400051808597	0.002
14	203157	63.450051808597	0.001
14	203419	63.500051808597	0.002
14	203432	63.550051808597	0.001
14	203681	63.600051808597	0.002
14	203694	63.650051808597	0.001
14	203943	63.700051808597	0.002
14	203956	63.750051808597	0.001
14	204205	63.800051808597	0.002
14	204218	63.850051808597	0.001
14	204467	63.900051808597	0.002
14	204480	63.950051808597	0.001
14	204742	64.000051808597	0.002
14	204755	64.050051808597	0.001
14	204991	64.100051808597	0.002
14	205004	64.150051808597	0.001
14	205253	64.200051808597	0.002
14	205266	64.250051808597	0.001
14	205515	64.300051808597	0.002
14	205528	64.350051808597	0.001
14	205777	64.400051808597	0.002
14	205790	64.450051808597	0.001
14	206052	64.500051808597	0.002
14	206065	64.550051808597	0.001
14	206314	64.600051808597	0.002
14	206324	64.650051808597	0.001
14	206485	64.700051808597	0.002
14	206495	64.750051808597	0.001
14	206656	64.800051808597	0.002
14	206666	64.850051808597	0.001
14	206817	64.900051808597	0.002
14	206827	64.950051808597	0.001
14	206978	65.000051808597	0.002
14	206988	65.050051808597	0.001
14	207149	65.100051808597	0.002
14	207159	65.150051808597	0.001
14	207320	65.200051808597	0.002
14	207330	65.250051808597	0.001
14	207491	65.300051808597	0.002
14	207501	65.350051808597	0.001
14	207662	65.400051808597	0.002
14	207672	65.450051808597	0.001
14	207833	65.500051808597	0.002
14	207843	65.550051808597	0.001
14	207994	65.600051808597	0.002
14	208004	65.650051808597	0.001
14	208155	65.700051808597	0.002
14	208165	65.750051808597	0.001
14	208326	65.800051808597	0.002
14	208336	65.850051808597	0.001
14	208497	65.900051808597	0.002
14	208507	65.950051808597	0.001
14	208668	66.000051808597	0.002
14	208678	66.050051808597	0.001
14	208829	66.100051808597	0.002
14	208839	66.150051808597	0.001
14	208990	66.200051808597	0.002
14	209000	66.250051808597	0.001
14	209151	66.300051808597	0.002
14	209161	66.350051808597	0.001
14	209322	66.400051808597	0.002
14	209332	66.450051808597	0.001
14	209483	66.500051808597	0.002
14	209493	66.550051808597	0.001
14	209654	66.600051808597	0.002
14	209664	66.650051808597	0.001
14	209815	66.700051808597	0.002
14	209825	66.750051808597	0.001
14	209986	66.800051808597	0.002
14	209996	66.850051808597	0.001
14	210147	66.900051808597	0.002
14	210157	66.950051808597	0.001
14	210318	67.000051808597	0.002
14	210328	67.050051808597	0.001
14	210479	67.100051808597	0.002
14	210489	67.150051808597	0.001
14	210650	67.200051808597	0.002
14	210660	67.250051808597	0.001
14	210821	67.300051808597	0.002
14	210831	67.350051808597	0.001
14	210992	67.400051808597	0.002
14	211002	67.450051808597	0.001
14	211153	67.500051808597	0.002
14	211163	67.550051808597	0.001
14	211324	67.600051808597	0.002
14	211334	67.650051808597	0.001
14	211495	67.700051808597	0.002
14	211505	67.750051808597	0.001
14	211656	67.800051808597	0.002
14	211663	67.850051808597	0.001
14	211747	67.900051808597	0.002
14	211754	67.950051808597	0.001
14	211838	68.000051808597	0.002
14	211845	68.050051808597	0.001
14	211929	68.100051808597	0.002
14	211936	68.150051808597	0.001
14	212020	68.200051808597	0.002
14	212027	68.250051808597	0.001
14	212111	68.300051808597	0.002
14	212118	68.350051808597	0.001
14	212202	68.400051808597	0.002
14	212209	68.450051808597	0.001
14	212293	68.500051808597	0.002
14	212300	68.550051808597	0.001
14	212384	68.600051808597	0.002
14	212391	68.650051808597	0.001
14	212475	68.700051808597	0.002
14	212482	68.750051808597	0.001
14	212566	68.800051808597	0.002
14	212573	68.850051808597	0.001
14	212657	68.900051808597	0.002
14	212664	68.950051808597	0.001
14	212748	69.000051808597	0.002
14	212755	69.050051808597	0.001
14	212839	69.100051808597	0.002
14	212846	69.150051808597	0.001
14	212930	69.200051808597	0.002
14	212937	69.250051808597	0.001
14	213021	69.300051808597	0.002
14	213028	69.350051808597	0.001
14	213112	69.400051808597	0.002
14	213119	69.450051808597	0.001
14	213203	69.500051808597	0.002
14	213210	69.550051808597	0.001
14	213294	69.600051808597	0.002
14	213301	69.650051808597	0.001
14	213385	69.700051808597	0.002
14	213392	69.750051808597	0.001
14	213476	69.800051808597	0.002
14	213483	69.850051808597	0.001
14	213567	69.900051808597	0.002
14	213574	69.950051808597	0.001
14	213658	70.000051808597	0.002
14	213665	70.050051808597	0.001
14	213749	70.100051808597	0.002
14	213756	70.150051808597	0.001
14	213840	70.200051808597	0.002
14	213847	70.250051808597	0.001
14	213931	70.300051808597	0.002
14	213938	70.350051808597	0.001
14	214022	70.400051808597	0.002
14	214029	70.450051808597	0.001
14	214113	70.500051808597	0.002
14	214120	70.550051808597	0.001
14	214204	70.600051808597	0.002
14	214211	70.650051808597	0.001
14	214295	70.700051808597	0.002
14	214299	70.750051808597	0.001
14	214330	70.800051808597	0.002
14	214334	70.850051808597	0.001
14	214365	70.900051808597	0.002
14	214369	70.950051808597	0.001
14	214400	71.000051808597	0.002
14	214404	71.050051808597	0.001
14	214435	71.100051808597	0.002
14	214439	71.150051808597	0.001
14	214470	71.200051808597	0.002
14	214474	71.250051808597	0.001
14	214505	71.300051808597	0.002
14	214509	71.350051808597	0.001
14	214540	71.400051808597	0.002
14	214544	71.450051808597	0.001
14	214575	71.500051808597	0.002
14	214579	71.550051808597	0.001
14	214610	71.600051808597	0.002
14	214614	71.650051808597	0.001
14	214645	71.700051808597	0.002
14	214649	71.750051808597	0.001
14	214680	71.800051808597	0.002
14	214684	71.850051808597	0.001
14	214715	71.900051808597	0.002
14	214719	71.950051808597	0.001
14	214750	72.000051808597	0.002
14	214754	72.050051808597	0.001
14	214785	72.100051808597	0.002
14	214789	72.150051808597	0.001
14	214820	72.200051808597	0.002
14	214824	72.250051808597	0.001
14	214855	72.300051808597	0.002
14	214859	72.350051808597	0.001
14	214890	72.400051808597	0.002
14	214894	72.450051808597	0.001
14	214925	72.500051808597	0.002
14	214929	72.550051808597	0.001
14	214960	72.600051808597	0.002
14	214964	72.650051808597	0.001
14	214995	72.700051808597	0.002
14	214999	72.750051808597	0.001
14	215030	72.800051808597	0.002
14	215034	72.850051808597	0.001
14	215065	72.900051808597	0.002
14	215069	72.950051808597	0.001
14	215100	73.000051808597	0.002
14	215104	73.050051808597	0.001
14	215135	73.100051808597	0.002
14	215139	73.150051808597	0.001
14	215170	73.200051808597	0.002
14	215174	73.250051808597	0.001
14	215205	73.300051808597	0.002
14	215209	73.350051808597	0.001
14	215240	73.400051808597	0.002
14	215244	73.450051808597	0.001
14	215275	73.500051808597	0.002
14	215279	73.550051808597	0.001
14	215310	73.600051808597	0.002
14	215314	73.650051808597	0.001
14	215345	73.700051808597	0.002
14	215346	73.750051808597	0.001
14	215347	73.800051808597	0.002
14	215348	73.850051808597	0.001
14	215349	73.900051808597	0.002
14	215350	73.950051808597	0.001
14	215351	74.000051808597	0.002
14	215352	74.050051808597	0.001
14	215353	74.100051808597	0.002
14	215354	74.150051808597	0.001
14	215355	74.200051808597	0.002
14	215356	74.250051808597	0.001
14	215357	74.300051808597	0.002
14	215358	74.350051808597	0.001
14	215359	74.400051808597	0.002
14	215360	74.450051808597	0.001
14	215361	74.500051808597	0.002
14	215362	74.550051808597	0.001
14	215363	74.600051808597	0.002
14	215364	74.650051808597	0.001
14	215365	74.700051808597	0.002
14	215366	74.750051808597	0.001
14	215367	74.800051808597	0.002
14	215368	74.850051808597	0.001
14	215369	74.900051808597	0.002
14	215370	74.950051808597	0.001
14	215371	75.000051808597	0.002
14	215372	75.050051808597	0.001
14	215373	75.100051808597	0.002
14	215374	75.150051808597	0.001
14	215375	75.200051808597	0.002
14	215376	75.250051808597	0.001
14	215377	75.300051808597	0.002
14	215378	75.350051808597	0.001
14	215379	75.400051808597	0.002
14	215380	75.450051808597	0.001
14	215381	75.500051808597	0.002
14	215382	75.550051808597	0.001
14	215383	75.600051808597	0.002
14	215384	75.650051808597	0.001
14	215385	75.700051808597	0.002
14	215386	75.750051808597	0.001
14	215387	75.800051808597	0.002
14	215388	75.850051808597	0.001
14	215389	75.900051808597	0.002
14	215390	75.950051808597	0.001
