version 2
run VoIP-30ms_280B-4-20160923-14:13:25-14667
attr configname VoIP-30ms_280B
attr datetime 20160923-14:13:25
attr experiment VoIP-30ms_280B
attr inifile omnetpp.ini
attr iterationvars ""
attr iterationvars2 $repetition=4
attr measurement ""
attr network SymScenerio
attr processid 14667
attr repetition 4
attr replication #4
attr resultdir results
attr runnumber 4
attr seedset 4
param **.coreDebug false
param **.debug false
param *.**.nic.mac1609_4.bitrate 18Mbps
param *.**.nic.mac1609_4.txPower 20mW
param *.**.nic.mac1609_4.useServiceChannel true
param *.**.nic.phy80211p.analogueModels "xmldoc(\"config.xml\")"
param *.**.nic.phy80211p.decider "xmldoc(\"config.xml\")"
param *.**.nic.phy80211p.sensitivity -89dBm
param *.**.nic.phy80211p.thermalNoise -110dBm
param *.**.nic.phy80211p.usePropagationDelay true
param *.**.nic.phy80211p.useThermalNoise true
param *.annotations.draw false
param *.connectionManager.alpha 2.0
param *.connectionManager.carrierFrequency "5.890e9 Hz"
param *.connectionManager.pMax 20mW
param *.connectionManager.sat -89dBm
param *.connectionManager.sendDirect true
param *.manager.autoShutdown true
param *.manager.host "\"localhost\""
param *.manager.launchConfig "xmldoc(\"map.launchd.xml\")"
param *.manager.margin 25
param *.manager.moduleDisplayString "\"\""
param *.manager.moduleName "\"node\""
param *.manager.moduleType "\"symulacja.veins.nodes.Car\""
param *.manager.port 9999
param *.manager.updateInterval 0.1s
param *.node[*].appl.beaconInterval 1s
param *.node[*].appl.beaconPriority 3
param *.node[*].appl.dataOnSch false
param *.node[*].appl.dataPriority 2
param *.node[*].appl.debug false
param *.node[*].appl.maxOffset 0.005s
param *.node[*].appl.sendBeacons false
param *.node[*].appl.sendData true
param *.node[*].appl.sendVoIP true
param *.node[*].appl.voipInterval 0.030s
param *.node[*].appl.voipLengthBits 2240bits
param *.node[*].appl.voipOnSch true
param *.node[*].appl.voipPriority 3
param *.node[*].applType "\"Sym11p\""
param *.node[*].veinsmobility.x 0
param *.node[*].veinsmobility.y 0
param *.node[*].veinsmobility.z 1.895
param *.node[*].veinsmobilityType "\"symulacja.veins.modules.mobility.traci.TraCIMobility\""
param *.playgroundSizeX 9000m
param *.playgroundSizeY 9000m
param *.playgroundSizeZ 50m
param *.rsu[*].appl.beaconInterval 1s
param *.rsu[*].appl.beaconPriority 3
param *.rsu[*].appl.dataOnSch false
param *.rsu[*].appl.dataPriority 2
param *.rsu[*].appl.debug false
param *.rsu[*].appl.headerLength "256 bit"
param *.rsu[*].appl.maxOffset 0.005s
param *.rsu[*].appl.sendBeacons false
param *.rsu[*].appl.sendData false
param *.rsu[*].appl.sendVoIP false
param *.rsu[*].applType "\"SymRSU11p\""
param *.rsu[0].mobility.x 2160
param *.rsu[0].mobility.y 3100
param *.rsu[0].mobility.z 3
param *.world.use2D false
param *.world.useTorus false

vector 14  SymScenerio.rsu[0].nic.mac1609_4  "Interwały kanałów"  ETV
vector 23  SymScenerio.node[0].veinsmobility  posx  ETV
vector 24  SymScenerio.node[0].veinsmobility  posy  ETV
vector 22  SymScenerio.node[0].nic.mac1609_4  "Interwały kanałów"  ETV
vector 25  SymScenerio.node[0].veinsmobility  speed  ETV
vector 26  SymScenerio.node[0].veinsmobility  acceleration  ETV
vector 27  SymScenerio.node[0].veinsmobility  co2emission  ETV
vector 15  SymScenerio.node[0].appl  "TX Packets"  ETV
vector 16  SymScenerio.node[0].appl  "TX Total"  ETV
vector 17  SymScenerio.node[0].appl  Pakietyzacja  ETV
vector 5  SymScenerio.rsu[0].appl  nodeALL:vector  ETV
attr source  nodeALL
attr title  "Opoznienia ALL, vector"
vector 9  SymScenerio.rsu[0].appl  "RX Packet"  ETV
vector 0  SymScenerio.rsu[0].appl  node0:vector  ETV
attr source  node0
attr title  "Opoznienia node0, vector"
vector 36  SymScenerio.node[1].veinsmobility  posx  ETV
vector 37  SymScenerio.node[1].veinsmobility  posy  ETV
vector 35  SymScenerio.node[1].nic.mac1609_4  "Interwały kanałów"  ETV
vector 38  SymScenerio.node[1].veinsmobility  speed  ETV
vector 39  SymScenerio.node[1].veinsmobility  acceleration  ETV
vector 40  SymScenerio.node[1].veinsmobility  co2emission  ETV
vector 28  SymScenerio.node[1].appl  "TX Packets"  ETV
vector 29  SymScenerio.node[1].appl  "TX Total"  ETV
vector 30  SymScenerio.node[1].appl  Pakietyzacja  ETV
vector 1  SymScenerio.rsu[0].appl  node1:vector  ETV
attr source  node1
attr title  "Opoznienia node1, vector"
vector 49  SymScenerio.node[2].veinsmobility  posx  ETV
vector 50  SymScenerio.node[2].veinsmobility  posy  ETV
vector 48  SymScenerio.node[2].nic.mac1609_4  "Interwały kanałów"  ETV
vector 51  SymScenerio.node[2].veinsmobility  speed  ETV
vector 41  SymScenerio.node[2].appl  "TX Packets"  ETV
vector 42  SymScenerio.node[2].appl  "TX Total"  ETV
vector 43  SymScenerio.node[2].appl  Pakietyzacja  ETV
vector 2  SymScenerio.rsu[0].appl  node2:vector  ETV
attr source  node2
attr title  "Opoznienia node2, vector"
vector 52  SymScenerio.node[2].veinsmobility  acceleration  ETV
vector 53  SymScenerio.node[2].veinsmobility  co2emission  ETV
vector 62  SymScenerio.node[3].veinsmobility  posx  ETV
vector 63  SymScenerio.node[3].veinsmobility  posy  ETV
vector 61  SymScenerio.node[3].nic.mac1609_4  "Interwały kanałów"  ETV
vector 64  SymScenerio.node[3].veinsmobility  speed  ETV
vector 65  SymScenerio.node[3].veinsmobility  acceleration  ETV
vector 66  SymScenerio.node[3].veinsmobility  co2emission  ETV
vector 54  SymScenerio.node[3].appl  "TX Packets"  ETV
vector 55  SymScenerio.node[3].appl  "TX Total"  ETV
vector 56  SymScenerio.node[3].appl  Pakietyzacja  ETV
vector 3  SymScenerio.rsu[0].appl  node3:vector  ETV
attr source  node3
attr title  "Opoznienia node3, vector"
vector 75  SymScenerio.node[4].veinsmobility  posx  ETV
vector 76  SymScenerio.node[4].veinsmobility  posy  ETV
vector 74  SymScenerio.node[4].nic.mac1609_4  "Interwały kanałów"  ETV
vector 77  SymScenerio.node[4].veinsmobility  speed  ETV
vector 78  SymScenerio.node[4].veinsmobility  acceleration  ETV
vector 79  SymScenerio.node[4].veinsmobility  co2emission  ETV
vector 67  SymScenerio.node[4].appl  "TX Packets"  ETV
vector 68  SymScenerio.node[4].appl  "TX Total"  ETV
vector 69  SymScenerio.node[4].appl  Pakietyzacja  ETV
vector 4  SymScenerio.rsu[0].appl  node4:vector  ETV
attr source  node4
attr title  "Opoznienia node4, vector"
17	37	0.778864412168	1.002
17	55	0.808864412168	1.002
17	57	0.838864412168	1.002
17	87	0.868864412168	1.002
17	102	0.898864412168	1.002
17	107	0.928864412168	1.002
17	137	0.958864412168	1.002
17	152	0.988864412168	1.002
17	170	1.018864412168	1.002
17	172	1.048864412168	1.002
17	202	1.078864412168	1.002
17	220	1.108864412168	1.002
17	222	1.138864412168	1.002
17	252	1.168864412168	1.002
17	267	1.198864412168	1.002
17	272	1.228864412168	1.002
17	302	1.258864412168	1.002
17	317	1.288864412168	1.002
17	335	1.318864412168	1.002
17	337	1.348864412168	1.002
17	367	1.378864412168	1.002
17	385	1.408864412168	1.002
17	387	1.438864412168	1.002
17	417	1.468864412168	1.002
17	432	1.498864412168	1.002
17	437	1.528864412168	1.002
17	467	1.558864412168	1.002
17	482	1.588864412168	1.002
17	500	1.618864412168	1.002
17	502	1.648864412168	1.002
17	532	1.678864412168	1.002
17	550	1.708864412168	1.002
17	552	1.738864412168	1.002
17	582	1.768864412168	1.002
17	597	1.798864412168	1.002
17	602	1.828864412168	1.002
17	632	1.858864412168	1.002
17	647	1.888864412168	1.002
17	665	1.918864412168	1.002
17	667	1.948864412168	1.002
17	697	1.978864412168	1.002
17	715	2.008864412168	1.002
17	717	2.038864412168	1.002
17	747	2.068864412168	1.002
17	762	2.098864412168	1.002
17	767	2.128864412168	1.002
17	797	2.158864412168	1.002
17	812	2.188864412168	1.002
17	830	2.218864412168	1.002
17	832	2.248864412168	1.002
17	862	2.278864412168	1.002
17	880	2.308864412168	1.002
17	882	2.338864412168	1.002
17	912	2.368864412168	1.002
17	927	2.398864412168	1.002
17	932	2.428864412168	1.002
17	962	2.458864412168	1.002
17	977	2.488864412168	1.002
17	995	2.518864412168	1.002
17	997	2.548864412168	1.002
17	1027	2.578864412168	1.002
17	1045	2.608864412168	1.002
17	1047	2.638864412168	1.002
17	1077	2.668864412168	1.002
17	1092	2.698864412168	1.002
17	1097	2.728864412168	1.002
17	1127	2.758864412168	1.002
17	1142	2.788864412168	1.002
17	1160	2.818864412168	1.002
17	1162	2.848864412168	1.002
17	1192	2.878864412168	1.002
17	1210	2.908864412168	1.002
17	1212	2.938864412168	1.002
17	1242	2.968864412168	1.002
17	1257	2.998864412168	1.002
17	1262	3.028864412168	1.002
17	1292	3.058864412168	1.002
17	1307	3.088864412168	1.002
17	1325	3.118864412168	1.002
17	1327	3.148864412168	1.002
17	1370	3.178864412168	1.002
17	1395	3.208864412168	1.002
17	1397	3.238864412168	1.002
17	1440	3.268864412168	1.002
17	1461	3.298864412168	1.002
17	1467	3.328864412168	1.002
17	1510	3.358864412168	1.002
17	1531	3.388864412168	1.002
17	1556	3.418864412168	1.002
17	1558	3.448864412168	1.002
17	1601	3.478864412168	1.002
17	1626	3.508864412168	1.002
17	1628	3.538864412168	1.002
17	1671	3.568864412168	1.002
17	1713	3.598864412168	1.002
17	1721	3.628864412168	1.002
17	1804	3.658864412168	1.002
17	1846	3.688864412168	1.002
17	1892	3.718864412168	1.002
17	1896	3.748864412168	1.002
17	1979	3.778864412168	1.002
17	2025	3.808864412168	1.002
17	2029	3.838864412168	1.002
17	2105	3.868864412168	1.002
17	2147	3.898864412168	1.002
17	2155	3.928864412168	1.002
17	2238	3.958864412168	1.002
17	2280	3.988864412168	1.002
17	2326	4.018864412168	1.002
17	2330	4.048864412168	1.002
17	2413	4.078864412168	1.002
17	2459	4.108864412168	1.002
17	2463	4.138864412168	1.002
17	2539	4.168864412168	1.002
17	2581	4.198864412168	1.002
17	2589	4.228864412168	1.002
17	2665	4.258864412168	1.002
17	2707	4.288864412168	1.002
17	2753	4.318864412168	1.002
17	2757	4.348864412168	1.002
17	2840	4.378864412168	1.002
17	2886	4.408864412168	1.002
17	2890	4.438864412168	1.002
17	2973	4.468864412168	1.002
17	3015	4.498864412168	1.002
17	3023	4.528864412168	1.002
17	3106	4.558864412168	1.002
17	3148	4.588864412168	1.002
17	3194	4.618864412168	1.002
17	3198	4.648864412168	1.002
17	3281	4.678864412168	1.002
17	3327	4.708864412168	1.002
17	3331	4.738864412168	1.002
17	3414	4.768864412168	1.002
17	3456	4.798864412168	1.002
17	3464	4.828864412168	1.002
17	3547	4.858864412168	1.002
17	3589	4.888864412168	1.002
17	3635	4.918864412168	1.002
17	3639	4.948864412168	1.002
17	3715	4.978864412168	1.002
17	3761	5.008864412168	1.002
17	3765	5.038864412168	1.002
17	3848	5.068864412168	1.002
17	3890	5.098864412168	1.002
17	3898	5.128864412168	1.002
17	3981	5.158864412168	1.002
17	4023	5.188864412168	1.002
17	4069	5.218864412168	1.002
17	4073	5.248864412168	1.002
17	4156	5.278864412168	1.002
17	4202	5.308864412168	1.002
17	4206	5.338864412168	1.002
17	4282	5.368864412168	1.002
17	4324	5.398864412168	1.002
17	4332	5.428864412168	1.002
17	4415	5.458864412168	1.002
17	4457	5.488864412168	1.002
17	4503	5.518864412168	1.002
17	4507	5.548864412168	1.002
17	4590	5.578864412168	1.002
17	4636	5.608864412168	1.002
17	4640	5.638864412168	1.002
17	4723	5.668864412168	1.002
17	4765	5.698864412168	1.002
17	4773	5.728864412168	1.002
17	4856	5.758864412168	1.002
17	4898	5.788864412168	1.002
17	4944	5.818864412168	1.002
17	4948	5.848864412168	1.002
17	5031	5.878864412168	1.002
17	5077	5.908864412168	1.002
17	5081	5.938864412168	1.002
17	5164	5.968864412168	1.002
17	5206	5.998864412168	1.002
17	5214	6.028864412168	1.002
17	5290	6.058864412168	1.002
17	5332	6.088864412168	1.002
17	5378	6.118864412168	1.002
17	5382	6.148864412168	1.002
17	5490	6.178864412168	1.002
17	5549	6.208864412168	1.002
17	5555	6.238864412168	1.002
17	5705	6.268864412168	1.002
17	5786	6.298864412168	1.002
17	5797	6.328864412168	1.002
17	5947	6.358864412168	1.002
17	6028	6.388864412168	1.002
17	6089	6.418864412168	1.002
17	6095	6.448864412168	1.002
17	6270	6.478864412168	1.002
17	6331	6.508864412168	1.002
17	6337	6.538864412168	1.002
17	6505	6.568864412168	1.002
17	6586	6.598864412168	1.002
17	6597	6.628864412168	1.002
17	6757	6.658864412168	1.002
17	6838	6.688864412168	1.002
17	6899	6.718864412168	1.002
17	6905	6.748864412168	1.002
17	7070	6.778864412168	1.002
17	7131	6.808864412168	1.002
17	7137	6.838864412168	1.002
17	7312	6.868864412168	1.002
17	7393	6.898864412168	1.002
17	7404	6.928864412168	1.002
17	7554	6.958864412168	1.002
17	7635	6.988864412168	1.002
17	7696	7.018864412168	1.002
17	7702	7.048864412168	1.002
17	7877	7.078864412168	1.002
17	7938	7.108864412168	1.002
17	7944	7.138864412168	1.002
17	8119	7.168864412168	1.002
17	8200	7.198864412168	1.002
17	8211	7.228864412168	1.002
17	8371	7.258864412168	1.002
17	8452	7.288864412168	1.002
17	8513	7.318864412168	1.002
17	8519	7.348864412168	1.002
17	8694	7.378864412168	1.002
17	8755	7.408864412168	1.002
17	8761	7.438864412168	1.002
17	8929	7.468864412168	1.002
17	9010	7.498864412168	1.002
17	9021	7.528864412168	1.002
17	9181	7.558864412168	1.002
17	9262	7.588864412168	1.002
17	9323	7.618864412168	1.002
17	9329	7.648864412168	1.002
17	9494	7.678864412168	1.002
17	9555	7.708864412168	1.002
17	9561	7.738864412168	1.002
17	9736	7.768864412168	1.002
17	9817	7.798864412168	1.002
17	9828	7.828864412168	1.002
17	9978	7.858864412168	1.002
17	10059	7.888864412168	1.002
17	10120	7.918864412168	1.002
17	10126	7.948864412168	1.002
17	10301	7.978864412168	1.002
17	10362	8.008864412168	1.002
17	10368	8.038864412168	1.002
17	10553	8.068864412168	1.002
17	10634	8.098864412168	1.002
17	10645	8.128864412168	1.002
17	10805	8.158864412168	1.002
17	10886	8.188864412168	1.002
17	10947	8.218864412168	1.002
17	10953	8.248864412168	1.002
17	11138	8.278864412168	1.002
17	11199	8.308864412168	1.002
17	11205	8.338864412168	1.002
17	11380	8.368864412168	1.002
17	11461	8.398864412168	1.002
17	11472	8.428864412168	1.002
17	11632	8.458864412168	1.002
17	11713	8.488864412168	1.002
17	11774	8.518864412168	1.002
17	11780	8.548864412168	1.002
17	11955	8.578864412168	1.002
17	12016	8.608864412168	1.002
17	12022	8.638864412168	1.002
17	12197	8.668864412168	1.002
17	12278	8.698864412168	1.002
17	12289	8.728864412168	1.002
17	12439	8.758864412168	1.002
17	12520	8.788864412168	1.002
17	12581	8.818864412168	1.002
17	12587	8.848864412168	1.002
17	12762	8.878864412168	1.002
17	12823	8.908864412168	1.002
17	12829	8.938864412168	1.002
17	13004	8.968864412168	1.002
17	13085	8.998864412168	1.002
17	13096	9.028864412168	1.002
17	13246	9.058864412168	1.002
17	13327	9.088864412168	1.002
17	13388	9.118864412168	1.002
17	13394	9.148864412168	1.002
17	13610	9.178864412168	1.002
17	13684	9.208864412168	1.002
17	13690	9.238864412168	1.002
17	13906	9.268864412168	1.002
17	14005	9.298864412168	1.002
17	14017	9.328864412168	1.002
17	14234	9.358864412168	1.002
17	14366	9.388864412168	1.002
17	14442	9.418864412168	1.002
17	14450	9.448864412168	1.002
17	14747	9.478864412168	1.002
17	14823	9.508864412168	1.002
17	14831	9.538864412168	1.002
17	15119	9.568864412168	1.002
17	15251	9.598864412168	1.002
17	15265	9.628864412168	1.002
17	15513	9.658864412168	1.002
17	15645	9.688864412168	1.002
17	15721	9.718864412168	1.002
17	15729	9.748864412168	1.002
17	16017	9.778864412168	1.002
17	16093	9.808864412168	1.002
17	16101	9.838864412168	1.002
17	16389	9.868864412168	1.002
17	16521	9.898864412168	1.002
17	16535	9.928864412168	1.002
17	16770	9.958864412168	1.002
17	16902	9.988864412168	1.002
17	16978	10.018864412168	1.002
17	16986	10.048864412168	1.002
17	17274	10.078864412168	1.002
17	17350	10.108864412168	1.002
17	17358	10.138864412168	1.002
17	17655	10.168864412168	1.002
17	17787	10.198864412168	1.002
17	17801	10.228864412168	1.002
17	18027	10.258864412168	1.002
17	18159	10.288864412168	1.002
17	18235	10.318864412168	1.002
17	18243	10.348864412168	1.002
17	18531	10.378864412168	1.002
17	18607	10.408864412168	1.002
17	18615	10.438864412168	1.002
17	18899	10.468864412168	1.002
17	19031	10.498864412168	1.002
17	19045	10.528864412168	1.002
17	19306	10.558864412168	1.002
17	19438	10.588864412168	1.002
17	19514	10.618864412168	1.002
17	19522	10.648864412168	1.002
17	19810	10.678864412168	1.002
17	19886	10.708864412168	1.002
17	19894	10.738864412168	1.002
17	20191	10.768864412168	1.002
17	20323	10.798864412168	1.002
17	20337	10.828864412168	1.002
17	20585	10.858864412168	1.002
17	20717	10.888864412168	1.002
17	20793	10.918864412168	1.002
17	20801	10.948864412168	1.002
17	21089	10.978864412168	1.002
17	21165	11.008864412168	1.002
17	21173	11.038864412168	1.002
17	21461	11.068864412168	1.002
17	21593	11.098864412168	1.002
17	21607	11.128864412168	1.002
17	21855	11.158864412168	1.002
17	21987	11.188864412168	1.002
17	22063	11.218864412168	1.002
17	22071	11.248864412168	1.002
17	22381	11.278864412168	1.002
17	22457	11.308864412168	1.002
17	22465	11.338864412168	1.002
17	22788	11.368864412168	1.002
17	22920	11.398864412168	1.002
17	22934	11.428864412168	1.002
17	23182	11.458864412168	1.002
17	23314	11.488864412168	1.002
17	23390	11.518864412168	1.002
17	23398	11.548864412168	1.002
17	23699	11.578864412168	1.002
17	23775	11.608864412168	1.002
17	23783	11.638864412168	1.002
17	24071	11.668864412168	1.002
17	24203	11.698864412168	1.002
17	24217	11.728864412168	1.002
17	24478	11.758864412168	1.002
17	24610	11.788864412168	1.002
17	24686	11.818864412168	1.002
17	24694	11.848864412168	1.002
17	24991	11.878864412168	1.002
17	25067	11.908864412168	1.002
17	25075	11.938864412168	1.002
17	25376	11.968864412168	1.002
17	25508	11.998864412168	1.002
17	25522	12.028864412168	1.002
17	25770	12.058864412168	1.002
17	25902	12.088864412168	1.002
17	25978	12.118864412168	1.002
17	25986	12.148864412168	1.002
17	26343	12.178864412168	1.002
17	26432	12.208864412168	1.002
17	26440	12.238864412168	1.002
17	26793	12.268864412168	1.002
17	26949	12.298864412168	1.002
17	26964	12.328864412168	1.002
17	27298	12.358864412168	1.002
17	27493	12.388864412168	1.002
17	27621	12.418864412168	1.002
17	27631	12.448864412168	1.002
17	28048	12.478864412168	1.002
17	28176	12.508864412168	1.002
17	28186	12.538864412168	1.002
17	28587	12.568864412168	1.002
17	28782	12.598864412168	1.002
17	28799	12.628864412168	1.002
17	29142	12.658864412168	1.002
17	29337	12.688864412168	1.002
17	29465	12.718864412168	1.002
17	29475	12.748864412168	1.002
17	29903	12.778864412168	1.002
17	30031	12.808864412168	1.002
17	30041	12.838864412168	1.002
17	30469	12.868864412168	1.002
17	30664	12.898864412168	1.002
17	30681	12.928864412168	1.002
17	31024	12.958864412168	1.002
17	31219	12.988864412168	1.002
17	31347	13.018864412168	1.002
17	31357	13.048864412168	1.002
17	31769	13.078864412168	1.002
17	31897	13.108864412168	1.002
17	31907	13.138864412168	1.002
17	32298	13.168864412168	1.002
17	32493	13.198864412168	1.002
17	32510	13.228864412168	1.002
17	32881	13.258864412168	1.002
17	33076	13.288864412168	1.002
17	33204	13.318864412168	1.002
17	33214	13.348864412168	1.002
17	33627	13.378864412168	1.002
17	33755	13.408864412168	1.002
17	33765	13.438864412168	1.002
17	34178	13.468864412168	1.002
17	34373	13.498864412168	1.002
17	34390	13.528864412168	1.002
17	34749	13.558864412168	1.002
17	34944	13.588864412168	1.002
17	35072	13.618864412168	1.002
17	35082	13.648864412168	1.002
17	35515	13.678864412168	1.002
17	35643	13.708864412168	1.002
17	35653	13.738864412168	1.002
17	36059	13.768864412168	1.002
17	36254	13.798864412168	1.002
17	36271	13.828864412168	1.002
17	36626	13.858864412168	1.002
17	36821	13.888864412168	1.002
17	36949	13.918864412168	1.002
17	36959	13.948864412168	1.002
17	37372	13.978864412168	1.002
17	37500	14.008864412168	1.002
17	37510	14.038864412168	1.002
17	37895	14.068864412168	1.002
17	38090	14.098864412168	1.002
17	38107	14.128864412168	1.002
17	38461	14.158864412168	1.002
17	38656	14.188864412168	1.002
17	38784	14.218864412168	1.002
17	38794	14.248864412168	1.002
17	39222	14.278864412168	1.002
17	39350	14.308864412168	1.002
17	39360	14.338864412168	1.002
17	39761	14.368864412168	1.002
17	39956	14.398864412168	1.002
17	39973	14.428864412168	1.002
17	40327	14.458864412168	1.002
17	40522	14.488864412168	1.002
17	40650	14.518864412168	1.002
17	40660	14.548864412168	1.002
17	41077	14.578864412168	1.002
17	41205	14.608864412168	1.002
17	41215	14.638864412168	1.002
17	41632	14.668864412168	1.002
17	41827	14.698864412168	1.002
17	41844	14.728864412168	1.002
17	42187	14.758864412168	1.002
17	42382	14.788864412168	1.002
17	42510	14.818864412168	1.002
17	42520	14.848864412168	1.002
17	42948	14.878864412168	1.002
17	43076	14.908864412168	1.002
17	43086	14.938864412168	1.002
17	43508	14.968864412168	1.002
17	43703	14.998864412168	1.002
17	43720	15.028864412168	1.002
17	44063	15.058864412168	1.002
17	44258	15.088864412168	1.002
17	44386	15.118864412168	1.002
17	44396	15.148864412168	1.002
17	44818	15.178864412168	1.002
17	44946	15.208864412168	1.002
17	44956	15.238864412168	1.002
17	45362	15.268864412168	1.002
17	45557	15.298864412168	1.002
17	45574	15.328864412168	1.002
17	45912	15.358864412168	1.002
17	46107	15.388864412168	1.002
17	46235	15.418864412168	1.002
17	46245	15.448864412168	1.002
17	46662	15.478864412168	1.002
17	46790	15.508864412168	1.002
17	46800	15.538864412168	1.002
17	47201	15.568864412168	1.002
17	47396	15.598864412168	1.002
17	47413	15.628864412168	1.002
17	47767	15.658864412168	1.002
17	47962	15.688864412168	1.002
17	48090	15.718864412168	1.002
17	48100	15.748864412168	1.002
17	48517	15.778864412168	1.002
17	48645	15.808864412168	1.002
17	48655	15.838864412168	1.002
17	49067	15.868864412168	1.002
17	49262	15.898864412168	1.002
17	49279	15.928864412168	1.002
17	49622	15.958864412168	1.002
17	49817	15.988864412168	1.002
17	49945	16.018864412168	1.002
17	49955	16.048864412168	1.002
17	50372	16.078864412168	1.002
17	50500	16.108864412168	1.002
17	50510	16.138864412168	1.002
17	50911	16.168864412168	1.002
17	51106	16.198864412168	1.002
17	51123	16.228864412168	1.002
17	51477	16.258864412168	1.002
17	51672	16.288864412168	1.002
17	51800	16.318864412168	1.002
17	51810	16.348864412168	1.002
17	52254	16.378864412168	1.002
17	52382	16.408864412168	1.002
17	52392	16.438864412168	1.002
17	52793	16.468864412168	1.002
17	52988	16.498864412168	1.002
17	53005	16.528864412168	1.002
17	53375	16.558864412168	1.002
17	53570	16.588864412168	1.002
17	53698	16.618864412168	1.002
17	53708	16.648864412168	1.002
17	54125	16.678864412168	1.002
17	54253	16.708864412168	1.002
17	54263	16.738864412168	1.002
17	54675	16.768864412168	1.002
17	54870	16.798864412168	1.002
17	54887	16.828864412168	1.002
17	55246	16.858864412168	1.002
17	55441	16.888864412168	1.002
17	55569	16.918864412168	1.002
17	55579	16.948864412168	1.002
17	56012	16.978864412168	1.002
17	56140	17.008864412168	1.002
17	56150	17.038864412168	1.002
17	56567	17.068864412168	1.002
17	56762	17.098864412168	1.002
17	56779	17.128864412168	1.002
17	57149	17.158864412168	1.002
17	57344	17.188864412168	1.002
17	57472	17.218864412168	1.002
17	57482	17.248864412168	1.002
17	57915	17.278864412168	1.002
17	58043	17.308864412168	1.002
17	58053	17.338864412168	1.002
17	58465	17.368864412168	1.002
17	58660	17.398864412168	1.002
17	58677	17.428864412168	1.002
17	59020	17.458864412168	1.002
17	59215	17.488864412168	1.002
17	59343	17.518864412168	1.002
17	59353	17.548864412168	1.002
17	59781	17.578864412168	1.002
17	59909	17.608864412168	1.002
17	59919	17.638864412168	1.002
17	60336	17.668864412168	1.002
17	60531	17.698864412168	1.002
17	60548	17.728864412168	1.002
17	60907	17.758864412168	1.002
17	61102	17.788864412168	1.002
17	61230	17.818864412168	1.002
17	61240	17.848864412168	1.002
17	61657	17.878864412168	1.002
17	61785	17.908864412168	1.002
17	61795	17.938864412168	1.002
17	62207	17.968864412168	1.002
17	62402	17.998864412168	1.002
17	62419	18.028864412168	1.002
17	62789	18.058864412168	1.002
17	62984	18.088864412168	1.002
17	63112	18.118864412168	1.002
17	63122	18.148864412168	1.002
17	63544	18.178864412168	1.002
17	63672	18.208864412168	1.002
17	63682	18.238864412168	1.002
17	64072	18.268864412168	1.002
17	64267	18.298864412168	1.002
17	64284	18.328864412168	1.002
17	64654	18.358864412168	1.002
17	64849	18.388864412168	1.002
17	64977	18.418864412168	1.002
17	64987	18.448864412168	1.002
17	65409	18.478864412168	1.002
17	65537	18.508864412168	1.002
17	65547	18.538864412168	1.002
17	65943	18.568864412168	1.002
17	66138	18.598864412168	1.002
17	66155	18.628864412168	1.002
17	66487	18.658864412168	1.002
17	66682	18.688864412168	1.002
17	66810	18.718864412168	1.002
17	66820	18.748864412168	1.002
17	67248	18.778864412168	1.002
17	67376	18.808864412168	1.002
17	67386	18.838864412168	1.002
17	67798	18.868864412168	1.002
17	67993	18.898864412168	1.002
17	68010	18.928864412168	1.002
17	68353	18.958864412168	1.002
17	68548	18.988864412168	1.002
17	68676	19.018864412168	1.002
17	68686	19.048864412168	1.002
17	69103	19.078864412168	1.002
17	69231	19.108864412168	1.002
17	69241	19.138864412168	1.002
17	69658	19.168864412168	1.002
17	69853	19.198864412168	1.002
17	69870	19.228864412168	1.002
17	70256	19.258864412168	1.002
17	70451	19.288864412168	1.002
17	70579	19.318864412168	1.002
17	70589	19.348864412168	1.002
17	71006	19.378864412168	1.002
17	71134	19.408864412168	1.002
17	71144	19.438864412168	1.002
17	71529	19.468864412168	1.002
17	71724	19.498864412168	1.002
17	71741	19.528864412168	1.002
17	72084	19.558864412168	1.002
17	72279	19.588864412168	1.002
17	72407	19.618864412168	1.002
17	72417	19.648864412168	1.002
17	72834	19.678864412168	1.002
17	72962	19.708864412168	1.002
17	72972	19.738864412168	1.002
17	73373	19.768864412168	1.002
17	73568	19.798864412168	1.002
17	73585	19.828864412168	1.002
17	73933	19.858864412168	1.002
17	74128	19.888864412168	1.002
17	74256	19.918864412168	1.002
17	74266	19.948864412168	1.002
17	74699	19.978864412168	1.002
17	74827	20.008864412168	1.002
17	74837	20.038864412168	1.002
17	75238	20.068864412168	1.002
17	75433	20.098864412168	1.002
17	75450	20.128864412168	1.002
17	75804	20.158864412168	1.002
17	75999	20.188864412168	1.002
17	76127	20.218864412168	1.002
17	76137	20.248864412168	1.002
17	76554	20.278864412168	1.002
17	76682	20.308864412168	1.002
17	76692	20.338864412168	1.002
17	77088	20.368864412168	1.002
17	77283	20.398864412168	1.002
17	77300	20.428864412168	1.002
17	77643	20.458864412168	1.002
17	77838	20.488864412168	1.002
17	77966	20.518864412168	1.002
17	77976	20.548864412168	1.002
17	78404	20.578864412168	1.002
17	78532	20.608864412168	1.002
17	78542	20.638864412168	1.002
17	78954	20.668864412168	1.002
17	79149	20.698864412168	1.002
17	79166	20.728864412168	1.002
17	79520	20.758864412168	1.002
17	79715	20.788864412168	1.002
17	79843	20.818864412168	1.002
17	79853	20.848864412168	1.002
17	80265	20.878864412168	1.002
17	80393	20.908864412168	1.002
17	80403	20.938864412168	1.002
17	80804	20.968864412168	1.002
17	80999	20.998864412168	1.002
17	81016	21.028864412168	1.002
17	81359	21.058864412168	1.002
17	81554	21.088864412168	1.002
17	81682	21.118864412168	1.002
17	81692	21.148864412168	1.002
17	82114	21.178864412168	1.002
17	82242	21.208864412168	1.002
17	82252	21.238864412168	1.002
17	82647	21.268864412168	1.002
17	82842	21.298864412168	1.002
17	82859	21.328864412168	1.002
17	83197	21.358864412168	1.002
17	83392	21.388864412168	1.002
17	83520	21.418864412168	1.002
17	83530	21.448864412168	1.002
17	83947	21.478864412168	1.002
17	84075	21.508864412168	1.002
17	84085	21.538864412168	1.002
17	84491	21.568864412168	1.002
17	84686	21.598864412168	1.002
17	84703	21.628864412168	1.002
17	85073	21.658864412168	1.002
17	85268	21.688864412168	1.002
17	85396	21.718864412168	1.002
17	85406	21.748864412168	1.002
17	85823	21.778864412168	1.002
17	85951	21.808864412168	1.002
17	85961	21.838864412168	1.002
17	86362	21.868864412168	1.002
17	86557	21.898864412168	1.002
17	86574	21.928864412168	1.002
17	86928	21.958864412168	1.002
17	87123	21.988864412168	1.002
17	87251	22.018864412168	1.002
17	87261	22.048864412168	1.002
17	87683	22.078864412168	1.002
17	87811	22.108864412168	1.002
17	87821	22.138864412168	1.002
17	88211	22.168864412168	1.002
17	88406	22.198864412168	1.002
17	88423	22.228864412168	1.002
17	88782	22.258864412168	1.002
17	88977	22.288864412168	1.002
17	89105	22.318864412168	1.002
17	89115	22.348864412168	1.002
17	89543	22.378864412168	1.002
17	89671	22.408864412168	1.002
17	89681	22.438864412168	1.002
17	90103	22.468864412168	1.002
17	90298	22.498864412168	1.002
17	90315	22.528864412168	1.002
17	90658	22.558864412168	1.002
17	90853	22.588864412168	1.002
17	90981	22.618864412168	1.002
17	90991	22.648864412168	1.002
17	91408	22.678864412168	1.002
17	91536	22.708864412168	1.002
17	91546	22.738864412168	1.002
17	91931	22.768864412168	1.002
17	92126	22.798864412168	1.002
17	92143	22.828864412168	1.002
17	92497	22.858864412168	1.002
17	92692	22.888864412168	1.002
17	92820	22.918864412168	1.002
17	92830	22.948864412168	1.002
17	93247	22.978864412168	1.002
17	93375	23.008864412168	1.002
17	93385	23.038864412168	1.002
17	93813	23.068864412168	1.002
17	94008	23.098864412168	1.002
17	94025	23.128864412168	1.002
17	94384	23.158864412168	1.002
17	94579	23.188864412168	1.002
17	94707	23.218864412168	1.002
17	94717	23.248864412168	1.002
17	95145	23.278864412168	1.002
17	95273	23.308864412168	1.002
17	95283	23.338864412168	1.002
17	95705	23.368864412168	1.002
17	95900	23.398864412168	1.002
17	95917	23.428864412168	1.002
17	96271	23.458864412168	1.002
17	96466	23.488864412168	1.002
17	96594	23.518864412168	1.002
17	96604	23.548864412168	1.002
17	97032	23.578864412168	1.002
17	97160	23.608864412168	1.002
17	97170	23.638864412168	1.002
17	97587	23.668864412168	1.002
17	97782	23.698864412168	1.002
17	97799	23.728864412168	1.002
17	98142	23.758864412168	1.002
17	98337	23.788864412168	1.002
17	98465	23.818864412168	1.002
17	98475	23.848864412168	1.002
17	98892	23.878864412168	1.002
17	99020	23.908864412168	1.002
17	99030	23.938864412168	1.002
17	99447	23.968864412168	1.002
17	99642	23.998864412168	1.002
17	99659	24.028864412168	1.002
17	100013	24.058864412168	1.002
17	100208	24.088864412168	1.002
17	100336	24.118864412168	1.002
17	100346	24.148864412168	1.002
17	100763	24.178864412168	1.002
17	100891	24.208864412168	1.002
17	100901	24.238864412168	1.002
17	101318	24.268864412168	1.002
17	101513	24.298864412168	1.002
17	101530	24.328864412168	1.002
17	101900	24.358864412168	1.002
17	102095	24.388864412168	1.002
17	102223	24.418864412168	1.002
17	102233	24.448864412168	1.002
17	102650	24.478864412168	1.002
17	102778	24.508864412168	1.002
17	102788	24.538864412168	1.002
17	103189	24.568864412168	1.002
17	103384	24.598864412168	1.002
17	103401	24.628864412168	1.002
17	103733	24.658864412168	1.002
17	103928	24.688864412168	1.002
17	104056	24.718864412168	1.002
17	104066	24.748864412168	1.002
17	104499	24.778864412168	1.002
17	104627	24.808864412168	1.002
17	104637	24.838864412168	1.002
17	105054	24.868864412168	1.002
17	105249	24.898864412168	1.002
17	105266	24.928864412168	1.002
17	105620	24.958864412168	1.002
17	105815	24.988864412168	1.002
17	105943	25.018864412168	1.002
17	105953	25.048864412168	1.002
17	106381	25.078864412168	1.002
17	106509	25.108864412168	1.002
17	106519	25.138864412168	1.002
17	106931	25.168864412168	1.002
17	107126	25.198864412168	1.002
17	107143	25.228864412168	1.002
17	107502	25.258864412168	1.002
17	107697	25.288864412168	1.002
17	107825	25.318864412168	1.002
17	107835	25.348864412168	1.002
17	108252	25.378864412168	1.002
17	108380	25.408864412168	1.002
17	108390	25.438864412168	1.002
17	108775	25.468864412168	1.002
17	108970	25.498864412168	1.002
17	108987	25.528864412168	1.002
17	109346	25.558864412168	1.002
17	109541	25.588864412168	1.002
17	109669	25.618864412168	1.002
17	109679	25.648864412168	1.002
17	110107	25.678864412168	1.002
17	110235	25.708864412168	1.002
17	110245	25.738864412168	1.002
17	110651	25.768864412168	1.002
17	110846	25.798864412168	1.002
17	110863	25.828864412168	1.002
17	111217	25.858864412168	1.002
17	111412	25.888864412168	1.002
17	111540	25.918864412168	1.002
17	111550	25.948864412168	1.002
17	111967	25.978864412168	1.002
17	112095	26.008864412168	1.002
17	112105	26.038864412168	1.002
17	112522	26.068864412168	1.002
17	112717	26.098864412168	1.002
17	112734	26.128864412168	1.002
17	113088	26.158864412168	1.002
17	113283	26.188864412168	1.002
17	113411	26.218864412168	1.002
17	113421	26.248864412168	1.002
17	113838	26.278864412168	1.002
17	113966	26.308864412168	1.002
17	113976	26.338864412168	1.002
17	114377	26.368864412168	1.002
17	114572	26.398864412168	1.002
17	114589	26.428864412168	1.002
17	114927	26.458864412168	1.002
17	115122	26.488864412168	1.002
17	115250	26.518864412168	1.002
17	115260	26.548864412168	1.002
17	115677	26.578864412168	1.002
17	115805	26.608864412168	1.002
17	115815	26.638864412168	1.002
17	116205	26.668864412168	1.002
17	116400	26.698864412168	1.002
17	116417	26.728864412168	1.002
17	116771	26.758864412168	1.002
17	116966	26.788864412168	1.002
17	117094	26.818864412168	1.002
17	117104	26.848864412168	1.002
17	117532	26.878864412168	1.002
17	117660	26.908864412168	1.002
17	117670	26.938864412168	1.002
17	118082	26.968864412168	1.002
17	118277	26.998864412168	1.002
17	118294	27.028864412168	1.002
17	118621	27.058864412168	1.002
17	118816	27.088864412168	1.002
17	118944	27.118864412168	1.002
17	118954	27.148864412168	1.002
17	119371	27.178864412168	1.002
17	119499	27.208864412168	1.002
17	119509	27.238864412168	1.002
17	119915	27.268864412168	1.002
17	120110	27.298864412168	1.002
17	120127	27.328864412168	1.002
17	120481	27.358864412168	1.002
17	120676	27.388864412168	1.002
17	120804	27.418864412168	1.002
17	120814	27.448864412168	1.002
17	121231	27.478864412168	1.002
17	121359	27.508864412168	1.002
17	121369	27.538864412168	1.002
17	121781	27.568864412168	1.002
17	121976	27.598864412168	1.002
17	121993	27.628864412168	1.002
17	122331	27.658864412168	1.002
17	122526	27.688864412168	1.002
17	122654	27.718864412168	1.002
17	122664	27.748864412168	1.002
17	123076	27.778864412168	1.002
17	123204	27.808864412168	1.002
17	123214	27.838864412168	1.002
17	123620	27.868864412168	1.002
17	123815	27.898864412168	1.002
17	123832	27.928864412168	1.002
17	124186	27.958864412168	1.002
17	124381	27.988864412168	1.002
17	124509	28.018864412168	1.002
17	124519	28.048864412168	1.002
17	124952	28.078864412168	1.002
17	125080	28.108864412168	1.002
17	125090	28.138864412168	1.002
17	125507	28.168864412168	1.002
17	125702	28.198864412168	1.002
17	125719	28.228864412168	1.002
17	126067	28.258864412168	1.002
17	126262	28.288864412168	1.002
17	126390	28.318864412168	1.002
17	126400	28.348864412168	1.002
17	126812	28.378864412168	1.002
17	126940	28.408864412168	1.002
17	126950	28.438864412168	1.002
17	127351	28.468864412168	1.002
17	127546	28.498864412168	1.002
17	127563	28.528864412168	1.002
17	127922	28.558864412168	1.002
17	128117	28.588864412168	1.002
17	128245	28.618864412168	1.002
17	128255	28.648864412168	1.002
17	128672	28.678864412168	1.002
17	128800	28.708864412168	1.002
17	128810	28.738864412168	1.002
17	129216	28.768864412168	1.002
17	129411	28.798864412168	1.002
17	129428	28.828864412168	1.002
17	129760	28.858864412168	1.002
17	129955	28.888864412168	1.002
17	130083	28.918864412168	1.002
17	130093	28.948864412168	1.002
17	130515	28.978864412168	1.002
17	130643	29.008864412168	1.002
17	130653	29.038864412168	1.002
17	131070	29.068864412168	1.002
17	131265	29.098864412168	1.002
17	131282	29.128864412168	1.002
17	131641	29.158864412168	1.002
17	131836	29.188864412168	1.002
17	131964	29.218864412168	1.002
17	131974	29.248864412168	1.002
17	132391	29.278864412168	1.002
17	132519	29.308864412168	1.002
17	132529	29.338864412168	1.002
17	132935	29.368864412168	1.002
17	133130	29.398864412168	1.002
17	133147	29.428864412168	1.002
17	133517	29.458864412168	1.002
17	133712	29.488864412168	1.002
17	133840	29.518864412168	1.002
17	133850	29.548864412168	1.002
17	134267	29.578864412168	1.002
17	134395	29.608864412168	1.002
17	134405	29.638864412168	1.002
17	134806	29.668864412168	1.002
17	135001	29.698864412168	1.002
17	135018	29.728864412168	1.002
17	135372	29.758864412168	1.002
17	135567	29.788864412168	1.002
17	135695	29.818864412168	1.002
17	135705	29.848864412168	1.002
17	136106	29.878864412168	1.002
17	136234	29.908864412168	1.002
17	136244	29.938864412168	1.002
17	136656	29.968864412168	1.002
17	136851	29.998864412168	1.002
17	136868	30.028864412168	1.002
17	137211	30.058864412168	1.002
17	137406	30.088864412168	1.002
17	137534	30.118864412168	1.002
17	137544	30.148864412168	1.002
17	137977	30.178864412168	1.002
17	138105	30.208864412168	1.002
17	138115	30.238864412168	1.002
17	138521	30.268864412168	1.002
17	138716	30.298864412168	1.002
17	138733	30.328864412168	1.002
17	139076	30.358864412168	1.002
17	139271	30.388864412168	1.002
17	139399	30.418864412168	1.002
17	139409	30.448864412168	1.002
17	139826	30.478864412168	1.002
17	139954	30.508864412168	1.002
17	139964	30.538864412168	1.002
17	140365	30.568864412168	1.002
17	140560	30.598864412168	1.002
17	140577	30.628864412168	1.002
17	140936	30.658864412168	1.002
17	141131	30.688864412168	1.002
17	141259	30.718864412168	1.002
17	141269	30.748864412168	1.002
17	141686	30.778864412168	1.002
17	141814	30.808864412168	1.002
17	141824	30.838864412168	1.002
17	142225	30.868864412168	1.002
17	142420	30.898864412168	1.002
17	142437	30.928864412168	1.002
17	142791	30.958864412168	1.002
17	142986	30.988864412168	1.002
17	143114	31.018864412168	1.002
17	143124	31.048864412168	1.002
17	143552	31.078864412168	1.002
17	143680	31.108864412168	1.002
17	143690	31.138864412168	1.002
17	144096	31.168864412168	1.002
17	144291	31.198864412168	1.002
17	144308	31.228864412168	1.002
17	144662	31.258864412168	1.002
17	144857	31.288864412168	1.002
17	144985	31.318864412168	1.002
17	144995	31.348864412168	1.002
17	145439	31.378864412168	1.002
17	145567	31.408864412168	1.002
17	145577	31.438864412168	1.002
17	145989	31.468864412168	1.002
17	146184	31.498864412168	1.002
17	146201	31.528864412168	1.002
17	146539	31.558864412168	1.002
17	146734	31.588864412168	1.002
17	146862	31.618864412168	1.002
17	146872	31.648864412168	1.002
17	147305	31.678864412168	1.002
17	147433	31.708864412168	1.002
17	147443	31.738864412168	1.002
17	147844	31.768864412168	1.002
17	148039	31.798864412168	1.002
17	148056	31.828864412168	1.002
17	148410	31.858864412168	1.002
17	148605	31.888864412168	1.002
17	148733	31.918864412168	1.002
17	148743	31.948864412168	1.002
17	149171	31.978864412168	1.002
17	149299	32.008864412168	1.002
17	149309	32.038864412168	1.002
17	149715	32.068864412168	1.002
17	149910	32.098864412168	1.002
17	149927	32.128864412168	1.002
17	150254	32.158864412168	1.002
17	150449	32.188864412168	1.002
17	150577	32.218864412168	1.002
17	150587	32.248864412168	1.002
17	151020	32.278864412168	1.002
17	151148	32.308864412168	1.002
17	151158	32.338864412168	1.002
17	151586	32.368864412168	1.002
17	151781	32.398864412168	1.002
17	151798	32.428864412168	1.002
17	152141	32.458864412168	1.002
17	152336	32.488864412168	1.002
17	152464	32.518864412168	1.002
17	152474	32.548864412168	1.002
17	152880	32.578864412168	1.002
17	153008	32.608864412168	1.002
17	153018	32.638864412168	1.002
17	153435	32.668864412168	1.002
17	153630	32.698864412168	1.002
17	153647	32.728864412168	1.002
17	154006	32.758864412168	1.002
17	154201	32.788864412168	1.002
17	154329	32.818864412168	1.002
17	154339	32.848864412168	1.002
17	154767	32.878864412168	1.002
17	154895	32.908864412168	1.002
17	154905	32.938864412168	1.002
17	155317	32.968864412168	1.002
17	155512	32.998864412168	1.002
17	155529	33.028864412168	1.002
17	155867	33.058864412168	1.002
17	156062	33.088864412168	1.002
17	156190	33.118864412168	1.002
17	156200	33.148864412168	1.002
17	156612	33.178864412168	1.002
17	156740	33.208864412168	1.002
17	156750	33.238864412168	1.002
17	157162	33.268864412168	1.002
17	157357	33.298864412168	1.002
17	157374	33.328864412168	1.002
17	157717	33.358864412168	1.002
17	157912	33.388864412168	1.002
17	158040	33.418864412168	1.002
17	158050	33.448864412168	1.002
17	158483	33.478864412168	1.002
17	158611	33.508864412168	1.002
17	158621	33.538864412168	1.002
17	159011	33.568864412168	1.002
17	159206	33.598864412168	1.002
17	159223	33.628864412168	1.002
17	159555	33.658864412168	1.002
17	159750	33.688864412168	1.002
17	159878	33.718864412168	1.002
17	159888	33.748864412168	1.002
17	160321	33.778864412168	1.002
17	160449	33.808864412168	1.002
17	160459	33.838864412168	1.002
17	160849	33.868864412168	1.002
17	161044	33.898864412168	1.002
17	161061	33.928864412168	1.002
17	161404	33.958864412168	1.002
17	161599	33.988864412168	1.002
17	161727	34.018864412168	1.002
17	161737	34.048864412168	1.002
17	162154	34.078864412168	1.002
17	162282	34.108864412168	1.002
17	162292	34.138864412168	1.002
17	162682	34.168864412168	1.002
17	162877	34.198864412168	1.002
17	162894	34.228864412168	1.002
17	163248	34.258864412168	1.002
17	163443	34.288864412168	1.002
17	163571	34.318864412168	1.002
17	163581	34.348864412168	1.002
17	163998	34.378864412168	1.002
17	164126	34.408864412168	1.002
17	164136	34.438864412168	1.002
17	164521	34.468864412168	1.002
17	164716	34.498864412168	1.002
17	164733	34.528864412168	1.002
17	165087	34.558864412168	1.002
17	165282	34.588864412168	1.002
17	165410	34.618864412168	1.002
17	165420	34.648864412168	1.002
17	165837	34.678864412168	1.002
17	165965	34.708864412168	1.002
17	165975	34.738864412168	1.002
17	166371	34.768864412168	1.002
17	166566	34.798864412168	1.002
17	166583	34.828864412168	1.002
17	166937	34.858864412168	1.002
17	167132	34.888864412168	1.002
17	167260	34.918864412168	1.002
17	167270	34.948864412168	1.002
17	167698	34.978864412168	1.002
17	167826	35.008864412168	1.002
17	167836	35.038864412168	1.002
17	168237	35.068864412168	1.002
17	168432	35.098864412168	1.002
17	168449	35.128864412168	1.002
17	168819	35.158864412168	1.002
17	169014	35.188864412168	1.002
17	169142	35.218864412168	1.002
17	169152	35.248864412168	1.002
17	169585	35.278864412168	1.002
17	169713	35.308864412168	1.002
17	169723	35.338864412168	1.002
17	170135	35.368864412168	1.002
17	170330	35.398864412168	1.002
17	170347	35.428864412168	1.002
17	170706	35.458864412168	1.002
17	170901	35.488864412168	1.002
17	171029	35.518864412168	1.002
17	171039	35.548864412168	1.002
17	171456	35.578864412168	1.002
17	171584	35.608864412168	1.002
17	171594	35.638864412168	1.002
17	172011	35.668864412168	1.002
17	172206	35.698864412168	1.002
17	172223	35.728864412168	1.002
17	172582	35.758864412168	1.002
17	172777	35.788864412168	1.002
17	172905	35.818864412168	1.002
17	172915	35.848864412168	1.002
17	173343	35.878864412168	1.002
17	173471	35.908864412168	1.002
17	173481	35.938864412168	1.002
17	173898	35.968864412168	1.002
17	174093	35.998864412168	1.002
17	174110	36.028864412168	1.002
17	174442	36.058864412168	1.002
17	174637	36.088864412168	1.002
17	174765	36.118864412168	1.002
17	174775	36.148864412168	1.002
17	175203	36.178864412168	1.002
17	175331	36.208864412168	1.002
17	175341	36.238864412168	1.002
17	175742	36.268864412168	1.002
17	175937	36.298864412168	1.002
17	175954	36.328864412168	1.002
17	176297	36.358864412168	1.002
17	176492	36.388864412168	1.002
17	176620	36.418864412168	1.002
17	176630	36.448864412168	1.002
17	177058	36.478864412168	1.002
17	177186	36.508864412168	1.002
17	177196	36.538864412168	1.002
17	177597	36.568864412168	1.002
17	177792	36.598864412168	1.002
17	177809	36.628864412168	1.002
17	178163	36.658864412168	1.002
17	178358	36.688864412168	1.002
17	178486	36.718864412168	1.002
17	178496	36.748864412168	1.002
17	178913	36.778864412168	1.002
17	179041	36.808864412168	1.002
17	179051	36.838864412168	1.002
17	179463	36.868864412168	1.002
17	179658	36.898864412168	1.002
17	179675	36.928864412168	1.002
17	180029	36.958864412168	1.002
17	180224	36.988864412168	1.002
17	180352	37.018864412168	1.002
17	180362	37.048864412168	1.002
17	180795	37.078864412168	1.002
17	180923	37.108864412168	1.002
17	180933	37.138864412168	1.002
17	181350	37.168864412168	1.002
17	181545	37.198864412168	1.002
17	181562	37.228864412168	1.002
17	181905	37.258864412168	1.002
17	182100	37.288864412168	1.002
17	182228	37.318864412168	1.002
17	182238	37.348864412168	1.002
17	182639	37.378864412168	1.002
17	182767	37.408864412168	1.002
17	182777	37.438864412168	1.002
17	183194	37.468864412168	1.002
17	183389	37.498864412168	1.002
17	183406	37.528864412168	1.002
17	183749	37.558864412168	1.002
17	183944	37.588864412168	1.002
17	184072	37.618864412168	1.002
17	184082	37.648864412168	1.002
17	184499	37.678864412168	1.002
17	184627	37.708864412168	1.002
17	184637	37.738864412168	1.002
17	185038	37.768864412168	1.002
17	185233	37.798864412168	1.002
17	185250	37.828864412168	1.002
17	185636	37.858864412168	1.002
17	185831	37.888864412168	1.002
17	185959	37.918864412168	1.002
17	185969	37.948864412168	1.002
17	186397	37.978864412168	1.002
17	186525	38.008864412168	1.002
17	186535	38.038864412168	1.002
17	186936	38.068864412168	1.002
17	187131	38.098864412168	1.002
17	187148	38.128864412168	1.002
17	187491	38.158864412168	1.002
17	187686	38.188864412168	1.002
17	187814	38.218864412168	1.002
17	187824	38.248864412168	1.002
17	188225	38.278864412168	1.002
17	188353	38.308864412168	1.002
17	188363	38.338864412168	1.002
17	188759	38.368864412168	1.002
17	188954	38.398864412168	1.002
17	188971	38.428864412168	1.002
17	189330	38.458864412168	1.002
17	189525	38.488864412168	1.002
17	189653	38.518864412168	1.002
17	189663	38.548864412168	1.002
17	190064	38.578864412168	1.002
17	190192	38.608864412168	1.002
17	190202	38.638864412168	1.002
17	190603	38.668864412168	1.002
17	190798	38.698864412168	1.002
17	190815	38.728864412168	1.002
17	191185	38.758864412168	1.002
17	191380	38.788864412168	1.002
17	191508	38.818864412168	1.002
17	191518	38.848864412168	1.002
17	191935	38.878864412168	1.002
17	192063	38.908864412168	1.002
17	192073	38.938864412168	1.002
17	192490	38.968864412168	1.002
17	192685	38.998864412168	1.002
17	192702	39.028864412168	1.002
17	193056	39.058864412168	1.002
17	193251	39.088864412168	1.002
17	193379	39.118864412168	1.002
17	193389	39.148864412168	1.002
17	193817	39.178864412168	1.002
17	193945	39.208864412168	1.002
17	193955	39.238864412168	1.002
17	194367	39.268864412168	1.002
17	194562	39.298864412168	1.002
17	194579	39.328864412168	1.002
17	194927	39.358864412168	1.002
17	195122	39.388864412168	1.002
17	195250	39.418864412168	1.002
17	195260	39.448864412168	1.002
17	195672	39.478864412168	1.002
17	195800	39.508864412168	1.002
17	195810	39.538864412168	1.002
17	196222	39.568864412168	1.002
17	196417	39.598864412168	1.002
17	196434	39.628864412168	1.002
17	196788	39.658864412168	1.002
17	196983	39.688864412168	1.002
17	197111	39.718864412168	1.002
17	197121	39.748864412168	1.002
17	197565	39.778864412168	1.002
17	197693	39.808864412168	1.002
17	197703	39.838864412168	1.002
17	198098	39.868864412168	1.002
17	198293	39.898864412168	1.002
17	198310	39.928864412168	1.002
17	198648	39.958864412168	1.002
17	198843	39.988864412168	1.002
17	198971	40.018864412168	1.002
17	198981	40.048864412168	1.002
17	199409	40.078864412168	1.002
17	199537	40.108864412168	1.002
17	199547	40.138864412168	1.002
17	199964	40.168864412168	1.002
17	200159	40.198864412168	1.002
17	200176	40.228864412168	1.002
17	200530	40.258864412168	1.002
17	200725	40.288864412168	1.002
17	200853	40.318864412168	1.002
17	200863	40.348864412168	1.002
17	201280	40.378864412168	1.002
17	201408	40.408864412168	1.002
17	201418	40.438864412168	1.002
17	201830	40.468864412168	1.002
17	202025	40.498864412168	1.002
17	202042	40.528864412168	1.002
17	202385	40.558864412168	1.002
17	202580	40.588864412168	1.002
17	202708	40.618864412168	1.002
17	202718	40.648864412168	1.002
17	203124	40.678864412168	1.002
17	203252	40.708864412168	1.002
17	203262	40.738864412168	1.002
17	203679	40.768864412168	1.002
17	203874	40.798864412168	1.002
17	203891	40.828864412168	1.002
17	204218	40.858864412168	1.002
17	204413	40.888864412168	1.002
17	204541	40.918864412168	1.002
17	204551	40.948864412168	1.002
17	204957	40.978864412168	1.002
17	205085	41.008864412168	1.002
17	205095	41.038864412168	1.002
17	205523	41.068864412168	1.002
17	205718	41.098864412168	1.002
17	205735	41.128864412168	1.002
17	206078	41.158864412168	1.002
17	206273	41.188864412168	1.002
17	206401	41.218864412168	1.002
17	206411	41.248864412168	1.002
17	206844	41.278864412168	1.002
17	206972	41.308864412168	1.002
17	206982	41.338864412168	1.002
17	207393	41.368864412168	1.002
17	207588	41.398864412168	1.002
17	207605	41.428864412168	1.002
17	207959	41.458864412168	1.002
17	208154	41.488864412168	1.002
17	208282	41.518864412168	1.002
17	208292	41.548864412168	1.002
17	208709	41.578864412168	1.002
17	208837	41.608864412168	1.002
17	208847	41.638864412168	1.002
17	209264	41.668864412168	1.002
17	209459	41.698864412168	1.002
17	209476	41.728864412168	1.002
17	209830	41.758864412168	1.002
17	210025	41.788864412168	1.002
17	210153	41.818864412168	1.002
17	210163	41.848864412168	1.002
17	210580	41.878864412168	1.002
17	210708	41.908864412168	1.002
17	210718	41.938864412168	1.002
17	211119	41.968864412168	1.002
17	211314	41.998864412168	1.002
17	211331	42.028864412168	1.002
17	211652	42.058864412168	1.002
17	211847	42.088864412168	1.002
17	211975	42.118864412168	1.002
17	211985	42.148864412168	1.002
17	212396	42.178864412168	1.002
17	212524	42.208864412168	1.002
17	212534	42.238864412168	1.002
17	212935	42.268864412168	1.002
17	213130	42.298864412168	1.002
17	213147	42.328864412168	1.002
17	213479	42.358864412168	1.002
17	213674	42.388864412168	1.002
17	213802	42.418864412168	1.002
17	213812	42.448864412168	1.002
17	214245	42.478864412168	1.002
17	214373	42.508864412168	1.002
17	214383	42.538864412168	1.002
17	214784	42.568864412168	1.002
17	214979	42.598864412168	1.002
17	214996	42.628864412168	1.002
17	215350	42.658864412168	1.002
17	215545	42.688864412168	1.002
17	215673	42.718864412168	1.002
17	215683	42.748864412168	1.002
17	216095	42.778864412168	1.002
17	216223	42.808864412168	1.002
17	216233	42.838864412168	1.002
17	216618	42.868864412168	1.002
17	216813	42.898864412168	1.002
17	216830	42.928864412168	1.002
17	217173	42.958864412168	1.002
17	217368	42.988864412168	1.002
17	217496	43.018864412168	1.002
17	217506	43.048864412168	1.002
17	217918	43.078864412168	1.002
17	218046	43.108864412168	1.002
17	218056	43.138864412168	1.002
17	218473	43.168864412168	1.002
17	218668	43.198864412168	1.002
17	218685	43.228864412168	1.002
17	219039	43.258864412168	1.002
17	219234	43.288864412168	1.002
17	219362	43.318864412168	1.002
17	219372	43.348864412168	1.002
17	219789	43.378864412168	1.002
17	219917	43.408864412168	1.002
17	219927	43.438864412168	1.002
17	220328	43.468864412168	1.002
17	220523	43.498864412168	1.002
17	220540	43.528864412168	1.002
17	220894	43.558864412168	1.002
17	221089	43.588864412168	1.002
17	221217	43.618864412168	1.002
17	221227	43.648864412168	1.002
17	221639	43.678864412168	1.002
17	221767	43.708864412168	1.002
17	221777	43.738864412168	1.002
17	222173	43.768864412168	1.002
17	222368	43.798864412168	1.002
17	222385	43.828864412168	1.002
17	222728	43.858864412168	1.002
17	222923	43.888864412168	1.002
17	223051	43.918864412168	1.002
17	223061	43.948864412168	1.002
17	223489	43.978864412168	1.002
17	223617	44.008864412168	1.002
17	223627	44.038864412168	1.002
17	224028	44.068864412168	1.002
17	224223	44.098864412168	1.002
17	224240	44.128864412168	1.002
17	224599	44.158864412168	1.002
17	224794	44.188864412168	1.002
17	224922	44.218864412168	1.002
17	224932	44.248864412168	1.002
17	225338	44.278864412168	1.002
17	225466	44.308864412168	1.002
17	225476	44.338864412168	1.002
17	225877	44.368864412168	1.002
17	226072	44.398864412168	1.002
17	226089	44.428864412168	1.002
17	226448	44.458864412168	1.002
17	226643	44.488864412168	1.002
17	226771	44.518864412168	1.002
17	226781	44.548864412168	1.002
17	227198	44.578864412168	1.002
17	227326	44.608864412168	1.002
17	227336	44.638864412168	1.002
17	227764	44.668864412168	1.002
17	227959	44.698864412168	1.002
17	227976	44.728864412168	1.002
17	228303	44.758864412168	1.002
17	228498	44.788864412168	1.002
17	228626	44.818864412168	1.002
17	228636	44.848864412168	1.002
17	229064	44.878864412168	1.002
17	229192	44.908864412168	1.002
17	229202	44.938864412168	1.002
17	229592	44.968864412168	1.002
17	229787	44.998864412168	1.002
17	229804	45.028864412168	1.002
17	230158	45.058864412168	1.002
17	230353	45.088864412168	1.002
17	230481	45.118864412168	1.002
17	230491	45.148864412168	1.002
17	230924	45.178864412168	1.002
17	231052	45.208864412168	1.002
17	231062	45.238864412168	1.002
17	231484	45.268864412168	1.002
17	231679	45.298864412168	1.002
17	231696	45.328864412168	1.002
17	232039	45.358864412168	1.002
17	232234	45.388864412168	1.002
17	232362	45.418864412168	1.002
17	232372	45.448864412168	1.002
17	232800	45.478864412168	1.002
17	232928	45.508864412168	1.002
17	232938	45.538864412168	1.002
17	233339	45.568864412168	1.002
17	233534	45.598864412168	1.002
17	233551	45.628864412168	1.002
17	233921	45.658864412168	1.002
17	234116	45.688864412168	1.002
17	234244	45.718864412168	1.002
17	234254	45.748864412168	1.002
17	234682	45.778864412168	1.002
17	234810	45.808864412168	1.002
17	234820	45.838864412168	1.002
17	235237	45.868864412168	1.002
17	235432	45.898864412168	1.002
17	235449	45.928864412168	1.002
17	235781	45.958864412168	1.002
17	235976	45.988864412168	1.002
17	236104	46.018864412168	1.002
17	236114	46.048864412168	1.002
17	236526	46.078864412168	1.002
17	236654	46.108864412168	1.002
17	236664	46.138864412168	1.002
17	237070	46.168864412168	1.002
17	237265	46.198864412168	1.002
17	237282	46.228864412168	1.002
17	237625	46.258864412168	1.002
17	237820	46.288864412168	1.002
17	237948	46.318864412168	1.002
17	237958	46.348864412168	1.002
17	238391	46.378864412168	1.002
17	238519	46.408864412168	1.002
17	238529	46.438864412168	1.002
17	238935	46.468864412168	1.002
17	239130	46.498864412168	1.002
17	239147	46.528864412168	1.002
17	239501	46.558864412168	1.002
17	239696	46.588864412168	1.002
17	239824	46.618864412168	1.002
17	239834	46.648864412168	1.002
17	240256	46.678864412168	1.002
17	240384	46.708864412168	1.002
17	240394	46.738864412168	1.002
17	240800	46.768864412168	1.002
17	240995	46.798864412168	1.002
17	241012	46.828864412168	1.002
17	241366	46.858864412168	1.002
17	241561	46.888864412168	1.002
17	241689	46.918864412168	1.002
17	241699	46.948864412168	1.002
17	242116	46.978864412168	1.002
17	242244	47.008864412168	1.002
17	242254	47.038864412168	1.002
17	242655	47.068864412168	1.002
17	242850	47.098864412168	1.002
17	242867	47.128864412168	1.002
17	243210	47.158864412168	1.002
17	243405	47.188864412168	1.002
17	243533	47.218864412168	1.002
17	243543	47.248864412168	1.002
17	243976	47.278864412168	1.002
17	244104	47.308864412168	1.002
17	244114	47.338864412168	1.002
17	244520	47.368864412168	1.002
17	244715	47.398864412168	1.002
17	244732	47.428864412168	1.002
17	245070	47.458864412168	1.002
17	245265	47.488864412168	1.002
17	245393	47.518864412168	1.002
17	245403	47.548864412168	1.002
17	245820	47.578864412168	1.002
17	245948	47.608864412168	1.002
17	245958	47.638864412168	1.002
17	246375	47.668864412168	1.002
17	246570	47.698864412168	1.002
17	246587	47.728864412168	1.002
17	246930	47.758864412168	1.002
17	247125	47.788864412168	1.002
17	247253	47.818864412168	1.002
17	247263	47.848864412168	1.002
17	247691	47.878864412168	1.002
17	247819	47.908864412168	1.002
17	247829	47.938864412168	1.002
17	248230	47.968864412168	1.002
17	248425	47.998864412168	1.002
17	248442	48.028864412168	1.002
17	248785	48.058864412168	1.002
17	248980	48.088864412168	1.002
17	249108	48.118864412168	1.002
17	249118	48.148864412168	1.002
17	249546	48.178864412168	1.002
17	249674	48.208864412168	1.002
17	249684	48.238864412168	1.002
17	250085	48.268864412168	1.002
17	250280	48.298864412168	1.002
17	250297	48.328864412168	1.002
17	250667	48.358864412168	1.002
17	250862	48.388864412168	1.002
17	250990	48.418864412168	1.002
17	251000	48.448864412168	1.002
17	251428	48.478864412168	1.002
17	251556	48.508864412168	1.002
17	251566	48.538864412168	1.002
17	251961	48.568864412168	1.002
17	252156	48.598864412168	1.002
17	252173	48.628864412168	1.002
17	252505	48.658864412168	1.002
17	252700	48.688864412168	1.002
17	252828	48.718864412168	1.002
17	252838	48.748864412168	1.002
17	253260	48.778864412168	1.002
17	253388	48.808864412168	1.002
17	253398	48.838864412168	1.002
17	253826	48.868864412168	1.002
17	254021	48.898864412168	1.002
17	254038	48.928864412168	1.002
17	254365	48.958864412168	1.002
17	254560	48.988864412168	1.002
17	254688	49.018864412168	1.002
17	254698	49.048864412168	1.002
17	255126	49.078864412168	1.002
17	255254	49.108864412168	1.002
17	255264	49.138864412168	1.002
17	255681	49.168864412168	1.002
17	255876	49.198864412168	1.002
17	255893	49.228864412168	1.002
17	256247	49.258864412168	1.002
17	256442	49.288864412168	1.002
17	256570	49.318864412168	1.002
17	256580	49.348864412168	1.002
17	257008	49.378864412168	1.002
17	257136	49.408864412168	1.002
17	257146	49.438864412168	1.002
17	257547	49.468864412168	1.002
17	257742	49.498864412168	1.002
17	257759	49.528864412168	1.002
17	258113	49.558864412168	1.002
17	258308	49.588864412168	1.002
17	258436	49.618864412168	1.002
17	258446	49.648864412168	1.002
17	258874	49.678864412168	1.002
17	259002	49.708864412168	1.002
17	259012	49.738864412168	1.002
17	259440	49.768864412168	1.002
17	259635	49.798864412168	1.002
17	259652	49.828864412168	1.002
17	259990	49.858864412168	1.002
17	260185	49.888864412168	1.002
17	260313	49.918864412168	1.002
17	260323	49.948864412168	1.002
17	260740	49.978864412168	1.002
17	260868	50.008864412168	1.002
17	260878	50.038864412168	1.002
17	261290	50.068864412168	1.002
17	261485	50.098864412168	1.002
17	261502	50.128864412168	1.002
17	261856	50.158864412168	1.002
17	262051	50.188864412168	1.002
17	262179	50.218864412168	1.002
17	262189	50.248864412168	1.002
17	262617	50.278864412168	1.002
17	262745	50.308864412168	1.002
17	262755	50.338864412168	1.002
17	263156	50.368864412168	1.002
17	263351	50.398864412168	1.002
17	263368	50.428864412168	1.002
17	263700	50.458864412168	1.002
17	263895	50.488864412168	1.002
17	264023	50.518864412168	1.002
17	264033	50.548864412168	1.002
17	264445	50.578864412168	1.002
17	264573	50.608864412168	1.002
17	264583	50.638864412168	1.002
17	264973	50.668864412168	1.002
17	265168	50.698864412168	1.002
17	265185	50.728864412168	1.002
17	265555	50.758864412168	1.002
17	265750	50.788864412168	1.002
17	265878	50.818864412168	1.002
17	265888	50.848864412168	1.002
17	266305	50.878864412168	1.002
17	266433	50.908864412168	1.002
17	266443	50.938864412168	1.002
17	266844	50.968864412168	1.002
17	267039	50.998864412168	1.002
17	267056	51.028864412168	1.002
17	267415	51.058864412168	1.002
17	267610	51.088864412168	1.002
17	267738	51.118864412168	1.002
17	267748	51.148864412168	1.002
17	268165	51.178864412168	1.002
17	268293	51.208864412168	1.002
17	268303	51.238864412168	1.002
17	268699	51.268864412168	1.002
17	268894	51.298864412168	1.002
17	268911	51.328864412168	1.002
17	269254	51.358864412168	1.002
17	269449	51.388864412168	1.002
17	269577	51.418864412168	1.002
17	269587	51.448864412168	1.002
17	270031	51.478864412168	1.002
17	270159	51.508864412168	1.002
17	270169	51.538864412168	1.002
17	270581	51.568864412168	1.002
17	270776	51.598864412168	1.002
17	270793	51.628864412168	1.002
17	271136	51.658864412168	1.002
17	271331	51.688864412168	1.002
17	271459	51.718864412168	1.002
17	271469	51.748864412168	1.002
17	271897	51.778864412168	1.002
17	272025	51.808864412168	1.002
17	272035	51.838864412168	1.002
17	272436	51.868864412168	1.002
17	272631	51.898864412168	1.002
17	272648	51.928864412168	1.002
17	273007	51.958864412168	1.002
17	273202	51.988864412168	1.002
17	273330	52.018864412168	1.002
17	273340	52.048864412168	1.002
17	273784	52.078864412168	1.002
17	273912	52.108864412168	1.002
17	273922	52.138864412168	1.002
17	274350	52.168864412168	1.002
17	274545	52.198864412168	1.002
17	274562	52.228864412168	1.002
17	274916	52.258864412168	1.002
17	275111	52.288864412168	1.002
17	275239	52.318864412168	1.002
17	275249	52.348864412168	1.002
17	275682	52.378864412168	1.002
17	275810	52.408864412168	1.002
17	275820	52.438864412168	1.002
17	276221	52.468864412168	1.002
17	276416	52.498864412168	1.002
17	276433	52.528864412168	1.002
17	276776	52.558864412168	1.002
17	276971	52.588864412168	1.002
17	277099	52.618864412168	1.002
17	277109	52.648864412168	1.002
17	277526	52.678864412168	1.002
17	277654	52.708864412168	1.002
17	277664	52.738864412168	1.002
17	278076	52.768864412168	1.002
17	278271	52.798864412168	1.002
17	278288	52.828864412168	1.002
17	278642	52.858864412168	1.002
17	278837	52.888864412168	1.002
17	278965	52.918864412168	1.002
17	278975	52.948864412168	1.002
17	279403	52.978864412168	1.002
17	279531	53.008864412168	1.002
17	279541	53.038864412168	1.002
17	279969	53.068864412168	1.002
17	280164	53.098864412168	1.002
17	280181	53.128864412168	1.002
17	280508	53.158864412168	1.002
17	280703	53.188864412168	1.002
17	280831	53.218864412168	1.002
17	280841	53.248864412168	1.002
17	281253	53.278864412168	1.002
17	281381	53.308864412168	1.002
17	281391	53.338864412168	1.002
17	281803	53.368864412168	1.002
17	281998	53.398864412168	1.002
17	282015	53.428864412168	1.002
17	282363	53.458864412168	1.002
17	282558	53.488864412168	1.002
17	282686	53.518864412168	1.002
17	282696	53.548864412168	1.002
17	283102	53.578864412168	1.002
17	283230	53.608864412168	1.002
17	283240	53.638864412168	1.002
17	283641	53.668864412168	1.002
17	283836	53.698864412168	1.002
17	283853	53.728864412168	1.002
17	284207	53.758864412168	1.002
17	284402	53.788864412168	1.002
17	284530	53.818864412168	1.002
17	284540	53.848864412168	1.002
17	284968	53.878864412168	1.002
17	285096	53.908864412168	1.002
17	285106	53.938864412168	1.002
17	285507	53.968864412168	1.002
17	285702	53.998864412168	1.002
17	285719	54.028864412168	1.002
17	286073	54.058864412168	1.002
17	286268	54.088864412168	1.002
17	286396	54.118864412168	1.002
17	286406	54.148864412168	1.002
17	286834	54.178864412168	1.002
17	286962	54.208864412168	1.002
17	286972	54.238864412168	1.002
17	287373	54.268864412168	1.002
17	287568	54.298864412168	1.002
17	287585	54.328864412168	1.002
17	287928	54.358864412168	1.002
17	288123	54.388864412168	1.002
17	288251	54.418864412168	1.002
17	288261	54.448864412168	1.002
17	288689	54.478864412168	1.002
17	288817	54.508864412168	1.002
17	288827	54.538864412168	1.002
17	289233	54.568864412168	1.002
17	289428	54.598864412168	1.002
17	289445	54.628864412168	1.002
17	289804	54.658864412168	1.002
17	289999	54.688864412168	1.002
17	290127	54.718864412168	1.002
17	290137	54.748864412168	1.002
17	290554	54.778864412168	1.002
17	290682	54.808864412168	1.002
17	290692	54.838864412168	1.002
17	291104	54.868864412168	1.002
17	291299	54.898864412168	1.002
17	291316	54.928864412168	1.002
17	291659	54.958864412168	1.002
17	291854	54.988864412168	1.002
17	291982	55.018864412168	1.002
17	291992	55.048864412168	1.002
17	292404	55.078864412168	1.002
17	292532	55.108864412168	1.002
17	292542	55.138864412168	1.002
17	292948	55.168864412168	1.002
17	293143	55.198864412168	1.002
17	293160	55.228864412168	1.002
17	293508	55.258864412168	1.002
17	293703	55.288864412168	1.002
17	293831	55.318864412168	1.002
17	293841	55.348864412168	1.002
17	294258	55.378864412168	1.002
17	294386	55.408864412168	1.002
17	294396	55.438864412168	1.002
17	294813	55.468864412168	1.002
17	295008	55.498864412168	1.002
17	295025	55.528864412168	1.002
17	295368	55.558864412168	1.002
17	295563	55.588864412168	1.002
17	295691	55.618864412168	1.002
17	295701	55.648864412168	1.002
17	296129	55.678864412168	1.002
17	296257	55.708864412168	1.002
17	296267	55.738864412168	1.002
17	296684	55.768864412168	1.002
17	296879	55.798864412168	1.002
17	296896	55.828864412168	1.002
17	297250	55.858864412168	1.002
17	297445	55.888864412168	1.002
17	297573	55.918864412168	1.002
17	297583	55.948864412168	1.002
17	297995	55.978864412168	1.002
17	298123	56.008864412168	1.002
17	298133	56.038864412168	1.002
17	298539	56.068864412168	1.002
17	298734	56.098864412168	1.002
17	298751	56.128864412168	1.002
17	299105	56.158864412168	1.002
17	299300	56.188864412168	1.002
17	299428	56.218864412168	1.002
17	299438	56.248864412168	1.002
17	299855	56.278864412168	1.002
17	299983	56.308864412168	1.002
17	299993	56.338864412168	1.002
17	300394	56.368864412168	1.002
17	300589	56.398864412168	1.002
17	300606	56.428864412168	1.002
17	300960	56.458864412168	1.002
17	301155	56.488864412168	1.002
17	301283	56.518864412168	1.002
17	301293	56.548864412168	1.002
17	301721	56.578864412168	1.002
17	301849	56.608864412168	1.002
17	301859	56.638864412168	1.002
17	302249	56.668864412168	1.002
17	302444	56.698864412168	1.002
17	302461	56.728864412168	1.002
17	302815	56.758864412168	1.002
17	303010	56.788864412168	1.002
17	303138	56.818864412168	1.002
17	303148	56.848864412168	1.002
17	303576	56.878864412168	1.002
17	303704	56.908864412168	1.002
17	303714	56.938864412168	1.002
17	304115	56.968864412168	1.002
17	304310	56.998864412168	1.002
17	304327	57.028864412168	1.002
17	304697	57.058864412168	1.002
17	304892	57.088864412168	1.002
17	305020	57.118864412168	1.002
17	305030	57.148864412168	1.002
17	305442	57.178864412168	1.002
17	305570	57.208864412168	1.002
17	305580	57.238864412168	1.002
17	305992	57.268864412168	1.002
17	306187	57.298864412168	1.002
17	306204	57.328864412168	1.002
17	306563	57.358864412168	1.002
17	306758	57.388864412168	1.002
17	306886	57.418864412168	1.002
17	306896	57.448864412168	1.002
17	307313	57.478864412168	1.002
17	307441	57.508864412168	1.002
17	307451	57.538864412168	1.002
17	307857	57.568864412168	1.002
17	308052	57.598864412168	1.002
17	308069	57.628864412168	1.002
17	308428	57.658864412168	1.002
17	308623	57.688864412168	1.002
17	308751	57.718864412168	1.002
17	308761	57.748864412168	1.002
17	309189	57.778864412168	1.002
17	309317	57.808864412168	1.002
17	309327	57.838864412168	1.002
17	309723	57.868864412168	1.002
17	309918	57.898864412168	1.002
17	309935	57.928864412168	1.002
17	310289	57.958864412168	1.002
17	310484	57.988864412168	1.002
17	310612	58.018864412168	1.002
17	310622	58.048864412168	1.002
17	311050	58.078864412168	1.002
17	311178	58.108864412168	1.002
17	311188	58.138864412168	1.002
17	311600	58.168864412168	1.002
17	311795	58.198864412168	1.002
17	311812	58.228864412168	1.002
17	312182	58.258864412168	1.002
17	312377	58.288864412168	1.002
17	312505	58.318864412168	1.002
17	312515	58.348864412168	1.002
17	312948	58.378864412168	1.002
17	313076	58.408864412168	1.002
17	313086	58.438864412168	1.002
17	313476	58.468864412168	1.002
17	313671	58.498864412168	1.002
17	313688	58.528864412168	1.002
17	314031	58.558864412168	1.002
17	314226	58.588864412168	1.002
17	314354	58.618864412168	1.002
17	314364	58.648864412168	1.002
17	314786	58.678864412168	1.002
17	314914	58.708864412168	1.002
17	314924	58.738864412168	1.002
17	315336	58.768864412168	1.002
17	315531	58.798864412168	1.002
17	315548	58.828864412168	1.002
17	315886	58.858864412168	1.002
17	316081	58.888864412168	1.002
17	316209	58.918864412168	1.002
17	316219	58.948864412168	1.002
17	316636	58.978864412168	1.002
17	316764	59.008864412168	1.002
17	316774	59.038864412168	1.002
17	317191	59.068864412168	1.002
17	317386	59.098864412168	1.002
17	317403	59.128864412168	1.002
17	317735	59.158864412168	1.002
17	317930	59.188864412168	1.002
17	318058	59.218864412168	1.002
17	318068	59.248864412168	1.002
17	318474	59.278864412168	1.002
17	318602	59.308864412168	1.002
17	318612	59.338864412168	1.002
17	319008	59.368864412168	1.002
17	319203	59.398864412168	1.002
17	319220	59.428864412168	1.002
17	319574	59.458864412168	1.002
17	319769	59.488864412168	1.002
17	319897	59.518864412168	1.002
17	319907	59.548864412168	1.002
17	320319	59.578864412168	1.002
17	320447	59.608864412168	1.002
17	320457	59.638864412168	1.002
17	320847	59.668864412168	1.002
17	321042	59.698864412168	1.002
17	321059	59.728864412168	1.002
17	321413	59.758864412168	1.002
17	321608	59.788864412168	1.002
17	321736	59.818864412168	1.002
17	321746	59.848864412168	1.002
17	322163	59.878864412168	1.002
17	322291	59.908864412168	1.002
17	322301	59.938864412168	1.002
17	322691	59.968864412168	1.002
17	322886	59.998864412168	1.002
17	322903	60.028864412168	1.002
17	323262	60.058864412168	1.002
17	323457	60.088864412168	1.002
17	323585	60.118864412168	1.002
17	323595	60.148864412168	1.002
17	324006	60.178864412168	1.002
17	324134	60.208864412168	1.002
17	324144	60.238864412168	1.002
17	324550	60.268864412168	1.002
17	324745	60.298864412168	1.002
17	324762	60.328864412168	1.002
17	325132	60.358864412168	1.002
17	325327	60.388864412168	1.002
17	325455	60.418864412168	1.002
17	325465	60.448864412168	1.002
17	325882	60.478864412168	1.002
17	326010	60.508864412168	1.002
17	326020	60.538864412168	1.002
17	326432	60.568864412168	1.002
17	326627	60.598864412168	1.002
17	326644	60.628864412168	1.002
17	326982	60.658864412168	1.002
17	327177	60.688864412168	1.002
17	327305	60.718864412168	1.002
17	327315	60.748864412168	1.002
17	327743	60.778864412168	1.002
17	327871	60.808864412168	1.002
17	327881	60.838864412168	1.002
17	328298	60.868864412168	1.002
17	328493	60.898864412168	1.002
17	328510	60.928864412168	1.002
17	328880	60.958864412168	1.002
17	329075	60.988864412168	1.002
17	329203	61.018864412168	1.002
17	329213	61.048864412168	1.002
17	329625	61.078864412168	1.002
17	329753	61.108864412168	1.002
17	329763	61.138864412168	1.002
17	330164	61.168864412168	1.002
17	330359	61.198864412168	1.002
17	330376	61.228864412168	1.002
17	330724	61.258864412168	1.002
17	330919	61.288864412168	1.002
17	331047	61.318864412168	1.002
17	331057	61.348864412168	1.002
17	331485	61.378864412168	1.002
17	331613	61.408864412168	1.002
17	331623	61.438864412168	1.002
17	332013	61.468864412168	1.002
17	332208	61.498864412168	1.002
17	332225	61.528864412168	1.002
17	332579	61.558864412168	1.002
17	332774	61.588864412168	1.002
17	332902	61.618864412168	1.002
17	332912	61.648864412168	1.002
17	333329	61.678864412168	1.002
16	37	0.778864412168	1
16	55	0.808864412168	2
16	57	0.838864412168	3
16	87	0.868864412168	4
16	102	0.898864412168	5
16	107	0.928864412168	6
16	137	0.958864412168	7
16	152	0.988864412168	8
16	170	1.018864412168	9
16	172	1.048864412168	10
16	202	1.078864412168	11
16	220	1.108864412168	12
16	222	1.138864412168	13
16	252	1.168864412168	14
16	267	1.198864412168	15
16	272	1.228864412168	16
16	302	1.258864412168	17
16	317	1.288864412168	18
16	335	1.318864412168	19
16	337	1.348864412168	20
16	367	1.378864412168	21
16	385	1.408864412168	22
16	387	1.438864412168	23
16	417	1.468864412168	24
16	432	1.498864412168	25
16	437	1.528864412168	26
16	467	1.558864412168	27
16	482	1.588864412168	28
16	500	1.618864412168	29
16	502	1.648864412168	30
16	532	1.678864412168	31
16	550	1.708864412168	32
16	552	1.738864412168	33
16	582	1.768864412168	34
16	597	1.798864412168	35
16	602	1.828864412168	36
16	632	1.858864412168	37
16	647	1.888864412168	38
16	665	1.918864412168	39
16	667	1.948864412168	40
16	697	1.978864412168	41
16	715	2.008864412168	42
16	717	2.038864412168	43
16	747	2.068864412168	44
16	762	2.098864412168	45
16	767	2.128864412168	46
16	797	2.158864412168	47
16	812	2.188864412168	48
16	830	2.218864412168	49
16	832	2.248864412168	50
16	862	2.278864412168	51
16	880	2.308864412168	52
16	882	2.338864412168	53
16	912	2.368864412168	54
16	927	2.398864412168	55
16	932	2.428864412168	56
16	962	2.458864412168	57
16	977	2.488864412168	58
16	995	2.518864412168	59
16	997	2.548864412168	60
16	1027	2.578864412168	61
16	1045	2.608864412168	62
16	1047	2.638864412168	63
16	1077	2.668864412168	64
16	1092	2.698864412168	65
16	1097	2.728864412168	66
16	1127	2.758864412168	67
16	1142	2.788864412168	68
16	1160	2.818864412168	69
16	1162	2.848864412168	70
16	1192	2.878864412168	71
16	1210	2.908864412168	72
16	1212	2.938864412168	73
16	1242	2.968864412168	74
16	1257	2.998864412168	75
16	1262	3.028864412168	76
16	1292	3.058864412168	77
16	1307	3.088864412168	78
16	1325	3.118864412168	79
16	1327	3.148864412168	80
16	1370	3.178864412168	81
16	1395	3.208864412168	82
16	1397	3.238864412168	83
16	1440	3.268864412168	84
16	1461	3.298864412168	85
16	1467	3.328864412168	86
16	1510	3.358864412168	87
16	1531	3.388864412168	88
16	1556	3.418864412168	89
16	1558	3.448864412168	90
16	1601	3.478864412168	91
16	1626	3.508864412168	92
16	1628	3.538864412168	93
16	1671	3.568864412168	94
16	1713	3.598864412168	96
16	1721	3.628864412168	98
16	1804	3.658864412168	100
16	1846	3.688864412168	102
16	1892	3.718864412168	104
16	1896	3.748864412168	106
16	1979	3.778864412168	108
16	2025	3.808864412168	110
16	2029	3.838864412168	112
16	2105	3.868864412168	114
16	2147	3.898864412168	116
16	2155	3.928864412168	118
16	2238	3.958864412168	120
16	2280	3.988864412168	122
16	2326	4.018864412168	124
16	2330	4.048864412168	126
16	2413	4.078864412168	128
16	2459	4.108864412168	130
16	2463	4.138864412168	132
16	2539	4.168864412168	134
16	2581	4.198864412168	136
16	2589	4.228864412168	138
16	2665	4.258864412168	140
16	2707	4.288864412168	142
16	2753	4.318864412168	144
16	2757	4.348864412168	146
16	2840	4.378864412168	148
16	2886	4.408864412168	150
16	2890	4.438864412168	152
16	2973	4.468864412168	154
16	3015	4.498864412168	156
16	3023	4.528864412168	158
16	3106	4.558864412168	160
16	3148	4.588864412168	162
16	3194	4.618864412168	164
16	3198	4.648864412168	166
16	3281	4.678864412168	168
16	3327	4.708864412168	170
16	3331	4.738864412168	172
16	3414	4.768864412168	174
16	3456	4.798864412168	176
16	3464	4.828864412168	178
16	3547	4.858864412168	180
16	3589	4.888864412168	182
16	3635	4.918864412168	184
16	3639	4.948864412168	186
16	3715	4.978864412168	188
16	3761	5.008864412168	190
16	3765	5.038864412168	192
16	3848	5.068864412168	194
16	3890	5.098864412168	196
16	3898	5.128864412168	198
16	3981	5.158864412168	200
16	4023	5.188864412168	202
16	4069	5.218864412168	204
16	4073	5.248864412168	206
16	4156	5.278864412168	208
16	4202	5.308864412168	210
16	4206	5.338864412168	212
16	4282	5.368864412168	214
16	4324	5.398864412168	216
16	4332	5.428864412168	218
16	4415	5.458864412168	220
16	4457	5.488864412168	222
16	4503	5.518864412168	224
16	4507	5.548864412168	226
16	4590	5.578864412168	228
16	4636	5.608864412168	230
16	4640	5.638864412168	232
16	4723	5.668864412168	234
16	4765	5.698864412168	236
16	4773	5.728864412168	238
16	4856	5.758864412168	240
16	4898	5.788864412168	242
16	4944	5.818864412168	244
16	4948	5.848864412168	246
16	5031	5.878864412168	248
16	5077	5.908864412168	250
16	5081	5.938864412168	252
16	5164	5.968864412168	254
16	5206	5.998864412168	256
16	5214	6.028864412168	258
16	5290	6.058864412168	260
16	5332	6.088864412168	262
16	5378	6.118864412168	264
16	5382	6.148864412168	266
16	5490	6.178864412168	268
16	5549	6.208864412168	270
16	5555	6.238864412168	273
16	5705	6.268864412168	276
16	5786	6.298864412168	279
16	5797	6.328864412168	282
16	5947	6.358864412168	285
16	6028	6.388864412168	288
16	6089	6.418864412168	291
16	6095	6.448864412168	294
16	6270	6.478864412168	297
16	6331	6.508864412168	300
16	6337	6.538864412168	303
16	6505	6.568864412168	306
16	6586	6.598864412168	309
16	6597	6.628864412168	312
16	6757	6.658864412168	315
16	6838	6.688864412168	318
16	6899	6.718864412168	321
16	6905	6.748864412168	324
16	7070	6.778864412168	327
16	7131	6.808864412168	330
16	7137	6.838864412168	333
16	7312	6.868864412168	336
16	7393	6.898864412168	339
16	7404	6.928864412168	342
16	7554	6.958864412168	345
16	7635	6.988864412168	348
16	7696	7.018864412168	351
16	7702	7.048864412168	354
16	7877	7.078864412168	357
16	7938	7.108864412168	360
16	7944	7.138864412168	363
16	8119	7.168864412168	366
16	8200	7.198864412168	369
16	8211	7.228864412168	372
16	8371	7.258864412168	375
16	8452	7.288864412168	378
16	8513	7.318864412168	381
16	8519	7.348864412168	384
16	8694	7.378864412168	387
16	8755	7.408864412168	390
16	8761	7.438864412168	393
16	8929	7.468864412168	396
16	9010	7.498864412168	399
16	9021	7.528864412168	402
16	9181	7.558864412168	405
16	9262	7.588864412168	408
16	9323	7.618864412168	411
16	9329	7.648864412168	414
16	9494	7.678864412168	417
16	9555	7.708864412168	420
16	9561	7.738864412168	423
16	9736	7.768864412168	426
16	9817	7.798864412168	429
16	9828	7.828864412168	432
16	9978	7.858864412168	435
16	10059	7.888864412168	438
16	10120	7.918864412168	441
16	10126	7.948864412168	444
16	10301	7.978864412168	447
16	10362	8.008864412168	450
16	10368	8.038864412168	453
16	10553	8.068864412168	456
16	10634	8.098864412168	459
16	10645	8.128864412168	462
16	10805	8.158864412168	465
16	10886	8.188864412168	468
16	10947	8.218864412168	471
16	10953	8.248864412168	474
16	11138	8.278864412168	477
16	11199	8.308864412168	480
16	11205	8.338864412168	483
16	11380	8.368864412168	486
16	11461	8.398864412168	489
16	11472	8.428864412168	492
16	11632	8.458864412168	495
16	11713	8.488864412168	498
16	11774	8.518864412168	501
16	11780	8.548864412168	504
16	11955	8.578864412168	507
16	12016	8.608864412168	510
16	12022	8.638864412168	513
16	12197	8.668864412168	516
16	12278	8.698864412168	519
16	12289	8.728864412168	522
16	12439	8.758864412168	525
16	12520	8.788864412168	528
16	12581	8.818864412168	531
16	12587	8.848864412168	534
16	12762	8.878864412168	537
16	12823	8.908864412168	540
16	12829	8.938864412168	543
16	13004	8.968864412168	546
16	13085	8.998864412168	549
16	13096	9.028864412168	552
16	13246	9.058864412168	555
16	13327	9.088864412168	558
16	13388	9.118864412168	561
16	13394	9.148864412168	564
16	13610	9.178864412168	567
16	13684	9.208864412168	570
16	13690	9.238864412168	573
16	13906	9.268864412168	576
16	14005	9.298864412168	579
16	14017	9.328864412168	582
16	14234	9.358864412168	586
16	14366	9.388864412168	590
16	14442	9.418864412168	594
16	14450	9.448864412168	598
16	14747	9.478864412168	602
16	14823	9.508864412168	606
16	14831	9.538864412168	610
16	15119	9.568864412168	614
16	15251	9.598864412168	618
16	15265	9.628864412168	622
16	15513	9.658864412168	626
16	15645	9.688864412168	630
16	15721	9.718864412168	634
16	15729	9.748864412168	638
16	16017	9.778864412168	642
16	16093	9.808864412168	646
16	16101	9.838864412168	650
16	16389	9.868864412168	654
16	16521	9.898864412168	658
16	16535	9.928864412168	662
16	16770	9.958864412168	666
16	16902	9.988864412168	670
16	16978	10.018864412168	674
16	16986	10.048864412168	678
16	17274	10.078864412168	682
16	17350	10.108864412168	686
16	17358	10.138864412168	690
16	17655	10.168864412168	694
16	17787	10.198864412168	698
16	17801	10.228864412168	702
16	18027	10.258864412168	706
16	18159	10.288864412168	710
16	18235	10.318864412168	714
16	18243	10.348864412168	718
16	18531	10.378864412168	722
16	18607	10.408864412168	726
16	18615	10.438864412168	730
16	18899	10.468864412168	734
16	19031	10.498864412168	738
16	19045	10.528864412168	742
16	19306	10.558864412168	746
16	19438	10.588864412168	750
16	19514	10.618864412168	754
16	19522	10.648864412168	758
16	19810	10.678864412168	762
16	19886	10.708864412168	766
16	19894	10.738864412168	770
16	20191	10.768864412168	774
16	20323	10.798864412168	778
16	20337	10.828864412168	782
16	20585	10.858864412168	786
16	20717	10.888864412168	790
16	20793	10.918864412168	794
16	20801	10.948864412168	798
16	21089	10.978864412168	802
16	21165	11.008864412168	806
16	21173	11.038864412168	810
16	21461	11.068864412168	814
16	21593	11.098864412168	818
16	21607	11.128864412168	822
16	21855	11.158864412168	826
16	21987	11.188864412168	830
16	22063	11.218864412168	834
16	22071	11.248864412168	838
16	22381	11.278864412168	842
16	22457	11.308864412168	846
16	22465	11.338864412168	850
16	22788	11.368864412168	854
16	22920	11.398864412168	858
16	22934	11.428864412168	862
16	23182	11.458864412168	866
16	23314	11.488864412168	870
16	23390	11.518864412168	874
16	23398	11.548864412168	878
16	23699	11.578864412168	882
16	23775	11.608864412168	886
16	23783	11.638864412168	890
16	24071	11.668864412168	894
16	24203	11.698864412168	898
16	24217	11.728864412168	902
16	24478	11.758864412168	906
16	24610	11.788864412168	910
16	24686	11.818864412168	914
16	24694	11.848864412168	918
16	24991	11.878864412168	922
16	25067	11.908864412168	926
16	25075	11.938864412168	930
[...]
14	228618	44.800051808597	0.002
14	228639	44.850051808597	0.001
14	229184	44.900051808597	0.002
14	229210	44.950051808597	0.001
14	229791	45.000051808597	0.002
14	229812	45.050051808597	0.001
14	230473	45.100051808597	0.002
14	230494	45.150051808597	0.001
14	231044	45.200051808597	0.002
14	231070	45.250051808597	0.001
14	231683	45.300051808597	0.002
14	231704	45.350051808597	0.001
14	232354	45.400051808597	0.002
14	232375	45.450051808597	0.001
14	232920	45.500051808597	0.002
14	232946	45.550051808597	0.001
14	233538	45.600051808597	0.002
14	233559	45.650051808597	0.001
14	234236	45.700051808597	0.002
14	234257	45.750051808597	0.001
14	234802	45.800051808597	0.002
14	234828	45.850051808597	0.001
14	235436	45.900051808597	0.002
14	235457	45.950051808597	0.001
14	236096	46.000051808597	0.002
14	236117	46.050051808597	0.001
14	236646	46.100051808597	0.002
14	236672	46.150051808597	0.001
14	237269	46.200051808597	0.002
14	237290	46.250051808597	0.001
14	237940	46.300051808597	0.002
14	237961	46.350051808597	0.001
14	238511	46.400051808597	0.002
14	238537	46.450051808597	0.001
14	239134	46.500051808597	0.002
14	239155	46.550051808597	0.001
14	239816	46.600051808597	0.002
14	239837	46.650051808597	0.001
14	240376	46.700051808597	0.002
14	240402	46.750051808597	0.001
14	240999	46.800051808597	0.002
14	241020	46.850051808597	0.001
14	241681	46.900051808597	0.002
14	241702	46.950051808597	0.001
14	242236	47.000051808597	0.002
14	242262	47.050051808597	0.001
14	242854	47.100051808597	0.002
14	242875	47.150051808597	0.001
14	243525	47.200051808597	0.002
14	243546	47.250051808597	0.001
14	244096	47.300051808597	0.002
14	244122	47.350051808597	0.001
14	244719	47.400051808597	0.002
14	244740	47.450051808597	0.001
14	245385	47.500051808597	0.002
14	245406	47.550051808597	0.001
14	245940	47.600051808597	0.002
14	245966	47.650051808597	0.001
14	246574	47.700051808597	0.002
14	246595	47.750051808597	0.001
14	247245	47.800051808597	0.002
14	247266	47.850051808597	0.001
14	247811	47.900051808597	0.002
14	247837	47.950051808597	0.001
14	248429	48.000051808597	0.002
14	248450	48.050051808597	0.001
14	249100	48.100051808597	0.002
14	249121	48.150051808597	0.001
14	249666	48.200051808597	0.002
14	249692	48.250051808597	0.001
14	250284	48.300051808597	0.002
14	250305	48.350051808597	0.001
14	250982	48.400051808597	0.002
14	251003	48.450051808597	0.001
14	251548	48.500051808597	0.002
14	251574	48.550051808597	0.001
14	252160	48.600051808597	0.002
14	252181	48.650051808597	0.001
14	252820	48.700051808597	0.002
14	252841	48.750051808597	0.001
14	253380	48.800051808597	0.002
14	253406	48.850051808597	0.001
14	254025	48.900051808597	0.002
14	254046	48.950051808597	0.001
14	254680	49.000051808597	0.002
14	254701	49.050051808597	0.001
14	255246	49.100051808597	0.002
14	255272	49.150051808597	0.001
14	255880	49.200051808597	0.002
14	255901	49.250051808597	0.001
14	256562	49.300051808597	0.002
14	256583	49.350051808597	0.001
14	257128	49.400051808597	0.002
14	257154	49.450051808597	0.001
14	257746	49.500051808597	0.002
14	257767	49.550051808597	0.001
14	258428	49.600051808597	0.002
14	258449	49.650051808597	0.001
14	258994	49.700051808597	0.002
14	259020	49.750051808597	0.001
14	259639	49.800051808597	0.002
14	259660	49.850051808597	0.001
14	260305	49.900051808597	0.002
14	260326	49.950051808597	0.001
14	260860	50.000051808597	0.002
14	260886	50.050051808597	0.001
14	261489	50.100051808597	0.002
14	261510	50.150051808597	0.001
14	262171	50.200051808597	0.002
14	262192	50.250051808597	0.001
14	262737	50.300051808597	0.002
14	262763	50.350051808597	0.001
14	263355	50.400051808597	0.002
14	263376	50.450051808597	0.001
14	264015	50.500051808597	0.002
14	264036	50.550051808597	0.001
14	264565	50.600051808597	0.002
14	264591	50.650051808597	0.001
14	265172	50.700051808597	0.002
14	265193	50.750051808597	0.001
14	265870	50.800051808597	0.002
14	265891	50.850051808597	0.001
14	266425	50.900051808597	0.002
14	266451	50.950051808597	0.001
14	267043	51.000051808597	0.002
14	267064	51.050051808597	0.001
14	267730	51.100051808597	0.002
14	267751	51.150051808597	0.001
14	268285	51.200051808597	0.002
14	268311	51.250051808597	0.001
14	268898	51.300051808597	0.002
14	268919	51.350051808597	0.001
14	269569	51.400051808597	0.002
14	269590	51.450051808597	0.001
14	270151	51.500051808597	0.002
14	270177	51.550051808597	0.001
14	270780	51.600051808597	0.002
14	270801	51.650051808597	0.001
14	271451	51.700051808597	0.002
14	271472	51.750051808597	0.001
14	272017	51.800051808597	0.002
14	272043	51.850051808597	0.001
14	272635	51.900051808597	0.002
14	272656	51.950051808597	0.001
14	273322	52.000051808597	0.002
14	273343	52.050051808597	0.001
14	273904	52.100051808597	0.002
14	273930	52.150051808597	0.001
14	274549	52.200051808597	0.002
14	274570	52.250051808597	0.001
14	275231	52.300051808597	0.002
14	275252	52.350051808597	0.001
14	275802	52.400051808597	0.002
14	275828	52.450051808597	0.001
14	276420	52.500051808597	0.002
14	276441	52.550051808597	0.001
14	277091	52.600051808597	0.002
14	277112	52.650051808597	0.001
14	277646	52.700051808597	0.002
14	277672	52.750051808597	0.001
14	278275	52.800051808597	0.002
14	278296	52.850051808597	0.001
14	278957	52.900051808597	0.002
14	278978	52.950051808597	0.001
14	279523	53.000051808597	0.002
14	279549	53.050051808597	0.001
14	280168	53.100051808597	0.002
14	280189	53.150051808597	0.001
14	280823	53.200051808597	0.002
14	280844	53.250051808597	0.001
14	281373	53.300051808597	0.002
14	281399	53.350051808597	0.001
14	282002	53.400051808597	0.002
14	282023	53.450051808597	0.001
14	282678	53.500051808597	0.002
14	282699	53.550051808597	0.001
14	283222	53.600051808597	0.002
14	283248	53.650051808597	0.001
14	283840	53.700051808597	0.002
14	283861	53.750051808597	0.001
14	284522	53.800051808597	0.002
14	284543	53.850051808597	0.001
14	285088	53.900051808597	0.002
14	285114	53.950051808597	0.001
14	285706	54.000051808597	0.002
14	285727	54.050051808597	0.001
14	286388	54.100051808597	0.002
14	286409	54.150051808597	0.001
14	286954	54.200051808597	0.002
14	286980	54.250051808597	0.001
14	287572	54.300051808597	0.002
14	287593	54.350051808597	0.001
14	288243	54.400051808597	0.002
14	288264	54.450051808597	0.001
14	288809	54.500051808597	0.002
14	288835	54.550051808597	0.001
14	289432	54.600051808597	0.002
14	289453	54.650051808597	0.001
14	290119	54.700051808597	0.002
14	290140	54.750051808597	0.001
14	290674	54.800051808597	0.002
14	290700	54.850051808597	0.001
14	291303	54.900051808597	0.002
14	291324	54.950051808597	0.001
14	291974	55.000051808597	0.002
14	291995	55.050051808597	0.001
14	292524	55.100051808597	0.002
14	292550	55.150051808597	0.001
14	293147	55.200051808597	0.002
14	293168	55.250051808597	0.001
14	293823	55.300051808597	0.002
14	293844	55.350051808597	0.001
14	294378	55.400051808597	0.002
14	294404	55.450051808597	0.001
14	295012	55.500051808597	0.002
14	295033	55.550051808597	0.001
14	295683	55.600051808597	0.002
14	295704	55.650051808597	0.001
14	296249	55.700051808597	0.002
14	296275	55.750051808597	0.001
14	296883	55.800051808597	0.002
14	296904	55.850051808597	0.001
14	297565	55.900051808597	0.002
14	297586	55.950051808597	0.001
14	298115	56.000051808597	0.002
14	298141	56.050051808597	0.001
14	298738	56.100051808597	0.002
14	298759	56.150051808597	0.001
14	299420	56.200051808597	0.002
14	299441	56.250051808597	0.001
14	299975	56.300051808597	0.002
14	300001	56.350051808597	0.001
14	300593	56.400051808597	0.002
14	300614	56.450051808597	0.001
14	301275	56.500051808597	0.002
14	301296	56.550051808597	0.001
14	301841	56.600051808597	0.002
14	301867	56.650051808597	0.001
14	302448	56.700051808597	0.002
14	302469	56.750051808597	0.001
14	303130	56.800051808597	0.002
14	303151	56.850051808597	0.001
14	303696	56.900051808597	0.002
14	303722	56.950051808597	0.001
14	304314	57.000051808597	0.002
14	304335	57.050051808597	0.001
14	305012	57.100051808597	0.002
14	305033	57.150051808597	0.001
14	305562	57.200051808597	0.002
14	305588	57.250051808597	0.001
14	306191	57.300051808597	0.002
14	306212	57.350051808597	0.001
14	306878	57.400051808597	0.002
14	306899	57.450051808597	0.001
14	307433	57.500051808597	0.002
14	307459	57.550051808597	0.001
14	308056	57.600051808597	0.002
14	308077	57.650051808597	0.001
14	308743	57.700051808597	0.002
14	308764	57.750051808597	0.001
14	309309	57.800051808597	0.002
14	309335	57.850051808597	0.001
14	309922	57.900051808597	0.002
14	309943	57.950051808597	0.001
14	310604	58.000051808597	0.002
14	310625	58.050051808597	0.001
14	311170	58.100051808597	0.002
14	311196	58.150051808597	0.001
14	311799	58.200051808597	0.002
14	311820	58.250051808597	0.001
14	312497	58.300051808597	0.002
14	312518	58.350051808597	0.001
14	313068	58.400051808597	0.002
14	313094	58.450051808597	0.001
14	313675	58.500051808597	0.002
14	313696	58.550051808597	0.001
14	314346	58.600051808597	0.002
14	314367	58.650051808597	0.001
14	314906	58.700051808597	0.002
14	314932	58.750051808597	0.001
14	315535	58.800051808597	0.002
14	315556	58.850051808597	0.001
14	316201	58.900051808597	0.002
14	316222	58.950051808597	0.001
14	316756	59.000051808597	0.002
14	316782	59.050051808597	0.001
14	317390	59.100051808597	0.002
14	317411	59.150051808597	0.001
14	318050	59.200051808597	0.002
14	318071	59.250051808597	0.001
14	318594	59.300051808597	0.002
14	318620	59.350051808597	0.001
14	319207	59.400051808597	0.002
14	319228	59.450051808597	0.001
14	319889	59.500051808597	0.002
14	319910	59.550051808597	0.001
14	320439	59.600051808597	0.002
14	320465	59.650051808597	0.001
14	321046	59.700051808597	0.002
14	321067	59.750051808597	0.001
14	321728	59.800051808597	0.002
14	321749	59.850051808597	0.001
14	322283	59.900051808597	0.002
14	322309	59.950051808597	0.001
14	322890	60.000051808597	0.002
14	322911	60.050051808597	0.001
14	323577	60.100051808597	0.002
14	323598	60.150051808597	0.001
14	324126	60.200051808597	0.002
14	324152	60.250051808597	0.001
14	324749	60.300051808597	0.002
14	324770	60.350051808597	0.001
14	325447	60.400051808597	0.002
14	325468	60.450051808597	0.001
14	326002	60.500051808597	0.002
14	326028	60.550051808597	0.001
14	326631	60.600051808597	0.002
14	326652	60.650051808597	0.001
14	327297	60.700051808597	0.002
14	327318	60.750051808597	0.001
14	327863	60.800051808597	0.002
14	327889	60.850051808597	0.001
14	328497	60.900051808597	0.002
14	328518	60.950051808597	0.001
14	329195	61.000051808597	0.002
14	329216	61.050051808597	0.001
14	329745	61.100051808597	0.002
14	329771	61.150051808597	0.001
14	330363	61.200051808597	0.002
14	330384	61.250051808597	0.001
14	331039	61.300051808597	0.002
14	331060	61.350051808597	0.001
14	331605	61.400051808597	0.002
14	331631	61.450051808597	0.001
14	332212	61.500051808597	0.002
14	332233	61.550051808597	0.001
14	332894	61.600051808597	0.002
14	332915	61.650051808597	0.001
14	333448	61.700051808597	0.002
14	333469	61.750051808597	0.001
14	333908	61.800051808597	0.002
14	333925	61.850051808597	0.001
14	334355	61.900051808597	0.002
14	334372	61.950051808597	0.001
14	334740	62.000051808597	0.002
14	334761	62.050051808597	0.001
14	335178	62.100051808597	0.002
14	335195	62.150051808597	0.001
14	335625	62.200051808597	0.002
14	335642	62.250051808597	0.001
14	336010	62.300051808597	0.002
14	336031	62.350051808597	0.001
14	336444	62.400051808597	0.002
14	336461	62.450051808597	0.001
14	336904	62.500051808597	0.002
14	336921	62.550051808597	0.001
14	337298	62.600051808597	0.002
14	337319	62.650051808597	0.001
14	337736	62.700051808597	0.002
14	337753	62.750051808597	0.001
14	338196	62.800051808597	0.002
14	338213	62.850051808597	0.001
14	338590	62.900051808597	0.002
14	338611	62.950051808597	0.001
14	339028	63.000051808597	0.002
14	339045	63.050051808597	0.001
14	339488	63.100051808597	0.002
14	339505	63.150051808597	0.001
14	339869	63.200051808597	0.002
14	339890	63.250051808597	0.001
14	340316	63.300051808597	0.002
14	340333	63.350051808597	0.001
14	340776	63.400051808597	0.002
14	340793	63.450051808597	0.001
14	341170	63.500051808597	0.002
14	341191	63.550051808597	0.001
14	341617	63.600051808597	0.002
14	341634	63.650051808597	0.001
14	342055	63.700051808597	0.002
14	342072	63.750051808597	0.001
14	342440	63.800051808597	0.002
14	342461	63.850051808597	0.001
14	342887	63.900051808597	0.002
14	342904	63.950051808597	0.001
14	343347	64.000051808597	0.002
14	343364	64.050051808597	0.001
14	343741	64.100051808597	0.002
14	343762	64.150051808597	0.001
14	344188	64.200051808597	0.002
14	344205	64.250051808597	0.001
14	344648	64.300051808597	0.002
14	344665	64.350051808597	0.001
14	345033	64.400051808597	0.002
14	345054	64.450051808597	0.001
14	345484	64.500051808597	0.002
14	345501	64.550051808597	0.001
14	345944	64.600051808597	0.002
14	345958	64.650051808597	0.001
14	346186	64.700051808597	0.002
14	346202	64.750051808597	0.001
14	346492	64.800051808597	0.002
14	346504	64.850051808597	0.001
14	346771	64.900051808597	0.002
14	346785	64.950051808597	0.001
14	347013	65.000051808597	0.002
14	347029	65.050051808597	0.001
14	347309	65.100051808597	0.002
14	347321	65.150051808597	0.001
14	347588	65.200051808597	0.002
14	347602	65.250051808597	0.001
14	347830	65.300051808597	0.002
14	347846	65.350051808597	0.001
14	348126	65.400051808597	0.002
14	348138	65.450051808597	0.001
14	348405	65.500051808597	0.002
14	348419	65.550051808597	0.001
14	348657	65.600051808597	0.002
14	348673	65.650051808597	0.001
14	348953	65.700051808597	0.002
14	348965	65.750051808597	0.001
14	349232	65.800051808597	0.002
14	349246	65.850051808597	0.001
14	349474	65.900051808597	0.002
14	349490	65.950051808597	0.001
14	349770	66.000051808597	0.002
14	349782	66.050051808597	0.001
14	350049	66.100051808597	0.002
14	350063	66.150051808597	0.001
14	350301	66.200051808597	0.002
14	350317	66.250051808597	0.001
14	350597	66.300051808597	0.002
14	350609	66.350051808597	0.001
14	350876	66.400051808597	0.002
14	350890	66.450051808597	0.001
14	351108	66.500051808597	0.002
14	351124	66.550051808597	0.001
14	351404	66.600051808597	0.002
14	351416	66.650051808597	0.001
14	351683	66.700051808597	0.002
14	351697	66.750051808597	0.001
14	351925	66.800051808597	0.002
14	351941	66.850051808597	0.001
14	352221	66.900051808597	0.002
14	352233	66.950051808597	0.001
14	352500	67.000051808597	0.002
14	352514	67.050051808597	0.001
14	352742	67.100051808597	0.002
14	352758	67.150051808597	0.001
14	353038	67.200051808597	0.002
14	353050	67.250051808597	0.001
14	353317	67.300051808597	0.002
14	353331	67.350051808597	0.001
14	353559	67.400051808597	0.002
14	353575	67.450051808597	0.001
14	353855	67.500051808597	0.002
14	353867	67.550051808597	0.001
14	354134	67.600051808597	0.002
14	354148	67.650051808597	0.001
14	354386	67.700051808597	0.002
14	354402	67.750051808597	0.001
14	354671	67.800051808597	0.002
14	354680	67.850051808597	0.001
14	354825	67.900051808597	0.002
14	354834	67.950051808597	0.001
14	354958	68.000051808597	0.002
14	354969	68.050051808597	0.001
14	355112	68.100051808597	0.002
14	355121	68.150051808597	0.001
14	355266	68.200051808597	0.002
14	355275	68.250051808597	0.001
14	355399	68.300051808597	0.002
14	355410	68.350051808597	0.001
14	355553	68.400051808597	0.002
14	355562	68.450051808597	0.001
14	355707	68.500051808597	0.002
14	355716	68.550051808597	0.001
14	355840	68.600051808597	0.002
14	355851	68.650051808597	0.001
14	355994	68.700051808597	0.002
14	356003	68.750051808597	0.001
14	356148	68.800051808597	0.002
14	356157	68.850051808597	0.001
14	356281	68.900051808597	0.002
14	356292	68.950051808597	0.001
14	356428	69.000051808597	0.002
14	356437	69.050051808597	0.001
14	356582	69.100051808597	0.002
14	356591	69.150051808597	0.001
14	356708	69.200051808597	0.002
14	356719	69.250051808597	0.001
14	356855	69.300051808597	0.002
14	356864	69.350051808597	0.001
14	357009	69.400051808597	0.002
14	357018	69.450051808597	0.001
14	357142	69.500051808597	0.002
14	357153	69.550051808597	0.001
14	357296	69.600051808597	0.002
14	357305	69.650051808597	0.001
14	357450	69.700051808597	0.002
14	357459	69.750051808597	0.001
14	357583	69.800051808597	0.002
14	357594	69.850051808597	0.001
14	357737	69.900051808597	0.002
14	357746	69.950051808597	0.001
14	357891	70.000051808597	0.002
14	357900	70.050051808597	0.001
14	358024	70.100051808597	0.002
14	358035	70.150051808597	0.001
14	358178	70.200051808597	0.002
14	358187	70.250051808597	0.001
14	358332	70.300051808597	0.002
14	358341	70.350051808597	0.001
14	358465	70.400051808597	0.002
14	358476	70.450051808597	0.001
14	358619	70.500051808597	0.002
14	358628	70.550051808597	0.001
14	358773	70.600051808597	0.002
14	358782	70.650051808597	0.001
14	358906	70.700051808597	0.002
14	358912	70.750051808597	0.001
14	358956	70.800051808597	0.002
14	358962	70.850051808597	0.001
14	359021	70.900051808597	0.002
14	359025	70.950051808597	0.001
14	359071	71.000051808597	0.002
14	359077	71.050051808597	0.001
14	359121	71.100051808597	0.002
14	359127	71.150051808597	0.001
14	359186	71.200051808597	0.002
14	359190	71.250051808597	0.001
14	359236	71.300051808597	0.002
14	359242	71.350051808597	0.001
14	359286	71.400051808597	0.002
14	359292	71.450051808597	0.001
14	359351	71.500051808597	0.002
14	359355	71.550051808597	0.001
14	359401	71.600051808597	0.002
14	359407	71.650051808597	0.001
14	359451	71.700051808597	0.002
14	359457	71.750051808597	0.001
14	359516	71.800051808597	0.002
14	359520	71.850051808597	0.001
14	359566	71.900051808597	0.002
14	359572	71.950051808597	0.001
14	359616	72.000051808597	0.002
14	359622	72.050051808597	0.001
14	359681	72.100051808597	0.002
14	359685	72.150051808597	0.001
14	359731	72.200051808597	0.002
14	359737	72.250051808597	0.001
14	359781	72.300051808597	0.002
14	359787	72.350051808597	0.001
14	359846	72.400051808597	0.002
14	359850	72.450051808597	0.001
14	359896	72.500051808597	0.002
14	359902	72.550051808597	0.001
14	359946	72.600051808597	0.002
14	359952	72.650051808597	0.001
14	360011	72.700051808597	0.002
14	360015	72.750051808597	0.001
14	360061	72.800051808597	0.002
14	360067	72.850051808597	0.001
14	360111	72.900051808597	0.002
14	360117	72.950051808597	0.001
14	360176	73.000051808597	0.002
14	360180	73.050051808597	0.001
14	360226	73.100051808597	0.002
14	360232	73.150051808597	0.001
14	360276	73.200051808597	0.002
14	360282	73.250051808597	0.001
14	360341	73.300051808597	0.002
14	360345	73.350051808597	0.001
14	360391	73.400051808597	0.002
14	360397	73.450051808597	0.001
14	360441	73.500051808597	0.002
14	360447	73.550051808597	0.001
14	360506	73.600051808597	0.002
14	360510	73.650051808597	0.001
14	360556	73.700051808597	0.002
14	360557	73.750051808597	0.001
14	360558	73.800051808597	0.002
14	360559	73.850051808597	0.001
14	360560	73.900051808597	0.002
14	360561	73.950051808597	0.001
14	360562	74.000051808597	0.002
14	360563	74.050051808597	0.001
14	360564	74.100051808597	0.002
14	360565	74.150051808597	0.001
14	360566	74.200051808597	0.002
14	360567	74.250051808597	0.001
14	360568	74.300051808597	0.002
14	360569	74.350051808597	0.001
14	360570	74.400051808597	0.002
14	360571	74.450051808597	0.001
14	360572	74.500051808597	0.002
14	360573	74.550051808597	0.001
14	360574	74.600051808597	0.002
14	360575	74.650051808597	0.001
14	360576	74.700051808597	0.002
14	360577	74.750051808597	0.001
14	360578	74.800051808597	0.002
14	360579	74.850051808597	0.001
14	360580	74.900051808597	0.002
14	360581	74.950051808597	0.001
14	360582	75.000051808597	0.002
14	360583	75.050051808597	0.001
14	360584	75.100051808597	0.002
14	360585	75.150051808597	0.001
14	360586	75.200051808597	0.002
14	360587	75.250051808597	0.001
14	360588	75.300051808597	0.002
14	360589	75.350051808597	0.001
14	360590	75.400051808597	0.002
14	360591	75.450051808597	0.001
14	360592	75.500051808597	0.002
14	360593	75.550051808597	0.001
14	360594	75.600051808597	0.002
14	360595	75.650051808597	0.001
14	360596	75.700051808597	0.002
14	360597	75.750051808597	0.001
14	360598	75.800051808597	0.002
14	360599	75.850051808597	0.001
14	360600	75.900051808597	0.002
14	360601	75.950051808597	0.001
