version 2
run VoIP-20ms_200B-5-20160923-14:09:41-14596
attr configname VoIP-20ms_200B
attr datetime 20160923-14:09:41
attr experiment VoIP-20ms_200B
attr inifile omnetpp.ini
attr iterationvars ""
attr iterationvars2 $repetition=5
attr measurement ""
attr network SymScenerio
attr processid 14596
attr repetition 5
attr replication #5
attr resultdir results
attr runnumber 5
attr seedset 5
param **.coreDebug false
param **.debug false
param *.**.nic.mac1609_4.bitrate 18Mbps
param *.**.nic.mac1609_4.txPower 20mW
param *.**.nic.mac1609_4.useServiceChannel true
param *.**.nic.phy80211p.analogueModels "xmldoc(\"config.xml\")"
param *.**.nic.phy80211p.decider "xmldoc(\"config.xml\")"
param *.**.nic.phy80211p.sensitivity -89dBm
param *.**.nic.phy80211p.thermalNoise -110dBm
param *.**.nic.phy80211p.usePropagationDelay true
param *.**.nic.phy80211p.useThermalNoise true
param *.annotations.draw false
param *.connectionManager.alpha 2.0
param *.connectionManager.carrierFrequency "5.890e9 Hz"
param *.connectionManager.pMax 20mW
param *.connectionManager.sat -89dBm
param *.connectionManager.sendDirect true
param *.manager.autoShutdown true
param *.manager.host "\"localhost\""
param *.manager.launchConfig "xmldoc(\"map.launchd.xml\")"
param *.manager.margin 25
param *.manager.moduleDisplayString "\"\""
param *.manager.moduleName "\"node\""
param *.manager.moduleType "\"symulacja.veins.nodes.Car\""
param *.manager.port 9999
param *.manager.updateInterval 0.1s
param *.node[*].appl.beaconInterval 1s
param *.node[*].appl.beaconPriority 3
param *.node[*].appl.dataOnSch false
param *.node[*].appl.dataPriority 2
param *.node[*].appl.debug false
param *.node[*].appl.maxOffset 0.005s
param *.node[*].appl.sendBeacons false
param *.node[*].appl.sendData true
param *.node[*].appl.sendVoIP true
param *.node[*].appl.voipInterval 0.020s
param *.node[*].appl.voipLengthBits 1600bit
param *.node[*].appl.voipOnSch true
param *.node[*].appl.voipPriority 3
param *.node[*].applType "\"Sym11p\""
param *.node[*].veinsmobility.x 0
param *.node[*].veinsmobility.y 0
param *.node[*].veinsmobility.z 1.895
param *.node[*].veinsmobilityType "\"symulacja.veins.modules.mobility.traci.TraCIMobility\""
param *.playgroundSizeX 9000m
param *.playgroundSizeY 9000m
param *.playgroundSizeZ 50m
param *.rsu[*].appl.beaconInterval 1s
param *.rsu[*].appl.beaconPriority 3
param *.rsu[*].appl.dataOnSch false
param *.rsu[*].appl.dataPriority 2
param *.rsu[*].appl.debug false
param *.rsu[*].appl.headerLength "256 bit"
param *.rsu[*].appl.maxOffset 0.005s
param *.rsu[*].appl.sendBeacons false
param *.rsu[*].appl.sendData false
param *.rsu[*].appl.sendVoIP false
param *.rsu[*].applType "\"SymRSU11p\""
param *.rsu[0].mobility.x 2160
param *.rsu[0].mobility.y 3100
param *.rsu[0].mobility.z 3
param *.world.use2D false
param *.world.useTorus false

vector 14  SymScenerio.rsu[0].nic.mac1609_4  "Interwały kanałów"  ETV
vector 23  SymScenerio.node[0].veinsmobility  posx  ETV
vector 24  SymScenerio.node[0].veinsmobility  posy  ETV
vector 22  SymScenerio.node[0].nic.mac1609_4  "Interwały kanałów"  ETV
vector 25  SymScenerio.node[0].veinsmobility  speed  ETV
vector 26  SymScenerio.node[0].veinsmobility  acceleration  ETV
vector 27  SymScenerio.node[0].veinsmobility  co2emission  ETV
vector 15  SymScenerio.node[0].appl  "TX Packets"  ETV
vector 16  SymScenerio.node[0].appl  "TX Total"  ETV
vector 17  SymScenerio.node[0].appl  Pakietyzacja  ETV
vector 5  SymScenerio.rsu[0].appl  nodeALL:vector  ETV
attr source  nodeALL
attr title  "Opoznienia ALL, vector"
vector 9  SymScenerio.rsu[0].appl  "RX Packet"  ETV
vector 0  SymScenerio.rsu[0].appl  node0:vector  ETV
attr source  node0
attr title  "Opoznienia node0, vector"
vector 36  SymScenerio.node[1].veinsmobility  posx  ETV
vector 37  SymScenerio.node[1].veinsmobility  posy  ETV
vector 35  SymScenerio.node[1].nic.mac1609_4  "Interwały kanałów"  ETV
vector 38  SymScenerio.node[1].veinsmobility  speed  ETV
vector 39  SymScenerio.node[1].veinsmobility  acceleration  ETV
vector 40  SymScenerio.node[1].veinsmobility  co2emission  ETV
vector 28  SymScenerio.node[1].appl  "TX Packets"  ETV
vector 29  SymScenerio.node[1].appl  "TX Total"  ETV
vector 30  SymScenerio.node[1].appl  Pakietyzacja  ETV
vector 1  SymScenerio.rsu[0].appl  node1:vector  ETV
attr source  node1
attr title  "Opoznienia node1, vector"
vector 49  SymScenerio.node[2].veinsmobility  posx  ETV
vector 50  SymScenerio.node[2].veinsmobility  posy  ETV
vector 48  SymScenerio.node[2].nic.mac1609_4  "Interwały kanałów"  ETV
vector 51  SymScenerio.node[2].veinsmobility  speed  ETV
vector 52  SymScenerio.node[2].veinsmobility  acceleration  ETV
vector 53  SymScenerio.node[2].veinsmobility  co2emission  ETV
vector 41  SymScenerio.node[2].appl  "TX Packets"  ETV
vector 42  SymScenerio.node[2].appl  "TX Total"  ETV
vector 43  SymScenerio.node[2].appl  Pakietyzacja  ETV
vector 2  SymScenerio.rsu[0].appl  node2:vector  ETV
attr source  node2
attr title  "Opoznienia node2, vector"
vector 62  SymScenerio.node[3].veinsmobility  posx  ETV
vector 63  SymScenerio.node[3].veinsmobility  posy  ETV
vector 61  SymScenerio.node[3].nic.mac1609_4  "Interwały kanałów"  ETV
vector 64  SymScenerio.node[3].veinsmobility  speed  ETV
vector 65  SymScenerio.node[3].veinsmobility  acceleration  ETV
vector 66  SymScenerio.node[3].veinsmobility  co2emission  ETV
vector 54  SymScenerio.node[3].appl  "TX Packets"  ETV
vector 55  SymScenerio.node[3].appl  "TX Total"  ETV
vector 56  SymScenerio.node[3].appl  Pakietyzacja  ETV
vector 3  SymScenerio.rsu[0].appl  node3:vector  ETV
attr source  node3
attr title  "Opoznienia node3, vector"
vector 75  SymScenerio.node[4].veinsmobility  posx  ETV
vector 76  SymScenerio.node[4].veinsmobility  posy  ETV
vector 74  SymScenerio.node[4].nic.mac1609_4  "Interwały kanałów"  ETV
vector 77  SymScenerio.node[4].veinsmobility  speed  ETV
vector 78  SymScenerio.node[4].veinsmobility  acceleration  ETV
vector 79  SymScenerio.node[4].veinsmobility  co2emission  ETV
vector 67  SymScenerio.node[4].appl  "TX Packets"  ETV
vector 68  SymScenerio.node[4].appl  "TX Total"  ETV
vector 69  SymScenerio.node[4].appl  Pakietyzacja  ETV
vector 4  SymScenerio.rsu[0].appl  node4:vector  ETV
attr source  node4
attr title  "Opoznienia node4, vector"
17	27	0.564205594994	1.002
17	42	0.584205594994	1.002
17	60	0.604205594994	1.002
17	62	0.624205594994	1.002
17	64	0.644205594994	1.002
17	107	0.664205594994	1.002
17	122	0.684205594994	1.002
17	140	0.704205594994	1.002
17	142	0.724205594994	1.002
17	144	0.744205594994	1.002
17	187	0.764205594994	1.002
17	202	0.784205594994	1.002
17	220	0.804205594994	1.002
17	222	0.824205594994	1.002
17	224	0.844205594994	1.002
17	267	0.864205594994	1.002
17	282	0.884205594994	1.002
17	300	0.904205594994	1.002
17	302	0.924205594994	1.002
17	304	0.944205594994	1.002
17	347	0.964205594994	1.002
17	362	0.984205594994	1.002
17	380	1.004205594994	1.002
17	382	1.024205594994	1.002
17	384	1.044205594994	1.002
17	427	1.064205594994	1.002
17	442	1.084205594994	1.002
17	460	1.104205594994	1.002
17	462	1.124205594994	1.002
17	464	1.144205594994	1.002
17	507	1.164205594994	1.002
17	522	1.184205594994	1.002
17	540	1.204205594994	1.002
17	542	1.224205594994	1.002
17	544	1.244205594994	1.002
17	587	1.264205594994	1.002
17	602	1.284205594994	1.002
17	620	1.304205594994	1.002
17	622	1.324205594994	1.002
17	624	1.344205594994	1.002
17	667	1.364205594994	1.002
17	682	1.384205594994	1.002
17	700	1.404205594994	1.002
17	702	1.424205594994	1.002
17	704	1.444205594994	1.002
17	747	1.464205594994	1.002
17	762	1.484205594994	1.002
17	780	1.504205594994	1.002
17	782	1.524205594994	1.002
17	784	1.544205594994	1.002
17	827	1.564205594994	1.002
17	842	1.584205594994	1.002
17	860	1.604205594994	1.002
17	862	1.624205594994	1.002
17	864	1.644205594994	1.002
17	907	1.664205594994	1.002
17	922	1.684205594994	1.002
17	940	1.704205594994	1.002
17	942	1.724205594994	1.002
17	944	1.744205594994	1.002
17	987	1.764205594994	1.002
17	1002	1.784205594994	1.002
17	1020	1.804205594994	1.002
17	1022	1.824205594994	1.002
17	1024	1.844205594994	1.002
17	1067	1.864205594994	1.002
17	1082	1.884205594994	1.002
17	1100	1.904205594994	1.002
17	1102	1.924205594994	1.002
17	1104	1.944205594994	1.002
17	1147	1.964205594994	1.002
17	1162	1.984205594994	1.002
17	1180	2.004205594994	1.002
17	1182	2.024205594994	1.002
17	1184	2.044205594994	1.002
17	1227	2.064205594994	1.002
17	1242	2.084205594994	1.002
17	1260	2.104205594994	1.002
17	1262	2.124205594994	1.002
17	1264	2.144205594994	1.002
17	1307	2.164205594994	1.002
17	1322	2.184205594994	1.002
17	1340	2.204205594994	1.002
17	1342	2.224205594994	1.002
17	1344	2.244205594994	1.002
17	1387	2.264205594994	1.002
17	1402	2.284205594994	1.002
17	1420	2.304205594994	1.002
17	1422	2.324205594994	1.002
17	1424	2.344205594994	1.002
17	1467	2.364205594994	1.002
17	1482	2.384205594994	1.002
17	1500	2.404205594994	1.002
17	1502	2.424205594994	1.002
17	1504	2.444205594994	1.002
17	1547	2.464205594994	1.002
17	1562	2.484205594994	1.002
17	1580	2.504205594994	1.002
17	1582	2.524205594994	1.002
17	1584	2.544205594994	1.002
17	1627	2.564205594994	1.002
17	1642	2.584205594994	1.002
17	1660	2.604205594994	1.002
17	1662	2.624205594994	1.002
17	1664	2.644205594994	1.002
17	1707	2.664205594994	1.002
17	1722	2.684205594994	1.002
17	1740	2.704205594994	1.002
17	1742	2.724205594994	1.002
17	1744	2.744205594994	1.002
17	1787	2.764205594994	1.002
17	1802	2.784205594994	1.002
17	1820	2.804205594994	1.002
17	1822	2.824205594994	1.002
17	1824	2.844205594994	1.002
17	1867	2.864205594994	1.002
17	1882	2.884205594994	1.002
17	1900	2.904205594994	1.002
17	1902	2.924205594994	1.002
17	1904	2.944205594994	1.002
17	1947	2.964205594994	1.002
17	1962	2.984205594994	1.002
17	1980	3.004205594994	1.002
17	1982	3.024205594994	1.002
17	1984	3.044205594994	1.002
17	2027	3.064205594994	1.002
17	2042	3.084205594994	1.002
17	2060	3.104205594994	1.002
17	2062	3.124205594994	1.002
17	2064	3.144205594994	1.002
17	2126	3.164205594994	1.002
17	2147	3.184205594994	1.002
17	2172	3.204205594994	1.002
17	2174	3.224205594994	1.002
17	2176	3.244205594994	1.002
17	2238	3.264205594994	1.002
17	2259	3.284205594994	1.002
17	2284	3.304205594994	1.002
17	2286	3.324205594994	1.002
17	2288	3.344205594994	1.002
17	2350	3.364205594994	1.002
17	2371	3.384205594994	1.002
17	2396	3.404205594994	1.002
17	2398	3.424205594994	1.002
17	2400	3.444205594994	1.002
17	2462	3.464205594994	1.002
17	2483	3.484205594994	1.002
17	2508	3.504205594994	1.002
17	2510	3.524205594994	1.002
17	2512	3.544205594994	1.002
17	2574	3.564205594994	1.002
17	2595	3.584205594994	1.002
17	2620	3.604205594994	1.002
17	2622	3.624205594994	1.002
17	2624	3.644205594994	1.002
17	2686	3.664205594994	1.002
17	2707	3.684205594994	1.002
17	2732	3.704205594994	1.002
17	2734	3.724205594994	1.002
17	2736	3.744205594994	1.002
17	2798	3.764205594994	1.002
17	2819	3.784205594994	1.002
17	2844	3.804205594994	1.002
17	2846	3.824205594994	1.002
17	2850	3.844205594994	1.002
17	2952	3.864205594994	1.002
17	2994	3.884205594994	1.002
17	3040	3.904205594994	1.002
17	3044	3.924205594994	1.002
17	3048	3.944205594994	1.002
17	3162	3.964205594994	1.002
17	3204	3.984205594994	1.002
17	3250	4.004205594994	1.002
17	3254	4.024205594994	1.002
17	3258	4.044205594994	1.002
17	3379	4.064205594994	1.002
17	3421	4.084205594994	1.002
17	3467	4.104205594994	1.002
17	3471	4.124205594994	1.002
17	3475	4.144205594994	1.002
17	3596	4.164205594994	1.002
17	3638	4.184205594994	1.002
17	3684	4.204205594994	1.002
17	3688	4.224205594994	1.002
17	3692	4.244205594994	1.002
17	3813	4.264205594994	1.002
17	3855	4.284205594994	1.002
17	3901	4.304205594994	1.002
17	3905	4.324205594994	1.002
17	3909	4.344205594994	1.002
17	4016	4.364205594994	1.002
17	4058	4.384205594994	1.002
17	4104	4.404205594994	1.002
17	4108	4.424205594994	1.002
17	4112	4.444205594994	1.002
17	4226	4.464205594994	1.002
17	4268	4.484205594994	1.002
17	4314	4.504205594994	1.002
17	4318	4.524205594994	1.002
17	4322	4.544205594994	1.002
17	4443	4.564205594994	1.002
17	4485	4.584205594994	1.002
17	4531	4.604205594994	1.002
17	4535	4.624205594994	1.002
17	4539	4.644205594994	1.002
17	4660	4.664205594994	1.002
17	4702	4.684205594994	1.002
17	4748	4.704205594994	1.002
17	4752	4.724205594994	1.002
17	4756	4.744205594994	1.002
17	4870	4.764205594994	1.002
17	4912	4.784205594994	1.002
17	4958	4.804205594994	1.002
17	4962	4.824205594994	1.002
17	4966	4.844205594994	1.002
17	5080	4.864205594994	1.002
17	5122	4.884205594994	1.002
17	5168	4.904205594994	1.002
17	5172	4.924205594994	1.002
17	5176	4.944205594994	1.002
17	5297	4.964205594994	1.002
17	5339	4.984205594994	1.002
17	5385	5.004205594994	1.002
17	5389	5.024205594994	1.002
17	5393	5.044205594994	1.002
17	5507	5.064205594994	1.002
17	5549	5.084205594994	1.002
17	5595	5.104205594994	1.002
17	5599	5.124205594994	1.002
17	5603	5.144205594994	1.002
17	5724	5.164205594994	1.002
17	5766	5.184205594994	1.002
17	5812	5.204205594994	1.002
17	5816	5.224205594994	1.002
17	5820	5.244205594994	1.002
17	5934	5.264205594994	1.002
17	5976	5.284205594994	1.002
17	6022	5.304205594994	1.002
17	6026	5.324205594994	1.002
17	6030	5.344205594994	1.002
17	6144	5.364205594994	1.002
17	6186	5.384205594994	1.002
17	6232	5.404205594994	1.002
17	6236	5.424205594994	1.002
17	6240	5.444205594994	1.002
17	6361	5.464205594994	1.002
17	6403	5.484205594994	1.002
17	6449	5.504205594994	1.002
17	6453	5.524205594994	1.002
17	6457	5.544205594994	1.002
17	6571	5.564205594994	1.002
17	6613	5.584205594994	1.002
17	6659	5.604205594994	1.002
17	6663	5.624205594994	1.002
17	6667	5.644205594994	1.002
17	6781	5.664205594994	1.002
17	6823	5.684205594994	1.002
17	6869	5.704205594994	1.002
17	6873	5.724205594994	1.002
17	6877	5.744205594994	1.002
17	6998	5.764205594994	1.002
17	7040	5.784205594994	1.002
17	7086	5.804205594994	1.002
17	7090	5.824205594994	1.002
17	7094	5.844205594994	1.002
17	7215	5.864205594994	1.002
17	7257	5.884205594994	1.002
17	7303	5.904205594994	1.002
17	7307	5.924205594994	1.002
17	7311	5.944205594994	1.002
17	7425	5.964205594994	1.002
17	7467	5.984205594994	1.002
17	7513	6.004205594994	1.002
17	7517	6.024205594994	1.002
17	7521	6.044205594994	1.002
17	7628	6.064205594994	1.002
17	7670	6.084205594994	1.002
17	7716	6.104205594994	1.002
17	7720	6.124205594994	1.002
17	7724	6.144205594994	1.002
17	7882	6.164205594994	1.002
17	7936	6.184205594994	1.002
17	7995	6.204205594994	1.002
17	7999	6.224205594994	1.002
17	8003	6.244205594994	1.002
17	8161	6.264205594994	1.002
17	8215	6.284205594994	1.002
17	8274	6.304205594994	1.002
17	8278	6.324205594994	1.002
17	8282	6.344205594994	1.002
17	8440	6.364205594994	1.002
17	8494	6.384205594994	1.002
17	8553	6.404205594994	1.002
17	8557	6.424205594994	1.002
17	8561	6.444205594994	1.002
17	8709	6.464205594994	1.002
17	8763	6.484205594994	1.002
17	8822	6.504205594994	1.002
17	8826	6.524205594994	1.002
17	8830	6.544205594994	1.002
17	8978	6.564205594994	1.002
17	9032	6.584205594994	1.002
17	9091	6.604205594994	1.002
17	9095	6.624205594994	1.002
17	9099	6.644205594994	1.002
17	9257	6.664205594994	1.002
17	9311	6.684205594994	1.002
17	9370	6.704205594994	1.002
17	9374	6.724205594994	1.002
17	9378	6.744205594994	1.002
17	9536	6.764205594994	1.002
17	9590	6.784205594994	1.002
17	9649	6.804205594994	1.002
17	9653	6.824205594994	1.002
17	9657	6.844205594994	1.002
17	9815	6.864205594994	1.002
17	9869	6.884205594994	1.002
17	9928	6.904205594994	1.002
17	9932	6.924205594994	1.002
17	9936	6.944205594994	1.002
17	10094	6.964205594994	1.002
17	10148	6.984205594994	1.002
17	10207	7.004205594994	1.002
17	10212	7.024205594994	1.002
17	10218	7.044205594994	1.002
17	10418	7.064205594994	1.002
17	10499	7.084205594994	1.002
17	10585	7.104205594994	1.002
17	10591	7.124205594994	1.002
17	10597	7.144205594994	1.002
17	10812	7.164205594994	1.002
17	10893	7.184205594994	1.002
17	10979	7.204205594994	1.002
17	10985	7.224205594994	1.002
17	10991	7.244205594994	1.002
17	11209	7.264205594994	1.002
17	11290	7.284205594994	1.002
17	11376	7.304205594994	1.002
17	11382	7.324205594994	1.002
17	11388	7.344205594994	1.002
17	11603	7.364205594994	1.002
17	11684	7.384205594994	1.002
17	11770	7.404205594994	1.002
17	11776	7.424205594994	1.002
17	11782	7.444205594994	1.002
17	11997	7.464205594994	1.002
17	12078	7.484205594994	1.002
17	12164	7.504205594994	1.002
17	12170	7.524205594994	1.002
17	12176	7.544205594994	1.002
17	12401	7.564205594994	1.002
17	12482	7.584205594994	1.002
17	12568	7.604205594994	1.002
17	12574	7.624205594994	1.002
17	12580	7.644205594994	1.002
17	12805	7.664205594994	1.002
17	12886	7.684205594994	1.002
17	12972	7.704205594994	1.002
17	12978	7.724205594994	1.002
17	12984	7.744205594994	1.002
17	13209	7.764205594994	1.002
17	13290	7.784205594994	1.002
17	13376	7.804205594994	1.002
17	13382	7.824205594994	1.002
17	13388	7.844205594994	1.002
17	13606	7.864205594994	1.002
17	13687	7.884205594994	1.002
17	13773	7.904205594994	1.002
17	13779	7.924205594994	1.002
17	13785	7.944205594994	1.002
17	14003	7.964205594994	1.002
17	14084	7.984205594994	1.002
17	14170	8.004205594994	1.002
17	14176	8.024205594994	1.002
17	14182	8.044205594994	1.002
17	14407	8.064205594994	1.002
17	14488	8.084205594994	1.002
17	14574	8.104205594994	1.002
17	14580	8.124205594994	1.002
17	14586	8.144205594994	1.002
17	14794	8.164205594994	1.002
17	14875	8.184205594994	1.002
17	14961	8.204205594994	1.002
17	14967	8.224205594994	1.002
17	14973	8.244205594994	1.002
17	15198	8.264205594994	1.002
17	15279	8.284205594994	1.002
17	15365	8.304205594994	1.002
17	15371	8.324205594994	1.002
17	15377	8.344205594994	1.002
17	15602	8.364205594994	1.002
17	15683	8.384205594994	1.002
17	15769	8.404205594994	1.002
17	15775	8.424205594994	1.002
17	15781	8.444205594994	1.002
17	15996	8.464205594994	1.002
17	16077	8.484205594994	1.002
17	16163	8.504205594994	1.002
17	16169	8.524205594994	1.002
17	16175	8.544205594994	1.002
17	16390	8.564205594994	1.002
17	16471	8.584205594994	1.002
17	16557	8.604205594994	1.002
17	16563	8.624205594994	1.002
17	16569	8.644205594994	1.002
17	16777	8.664205594994	1.002
17	16858	8.684205594994	1.002
17	16944	8.704205594994	1.002
17	16950	8.724205594994	1.002
17	16956	8.744205594994	1.002
17	17181	8.764205594994	1.002
17	17262	8.784205594994	1.002
17	17348	8.804205594994	1.002
17	17354	8.824205594994	1.002
17	17360	8.844205594994	1.002
17	17585	8.864205594994	1.002
17	17666	8.884205594994	1.002
17	17752	8.904205594994	1.002
17	17758	8.924205594994	1.002
17	17764	8.944205594994	1.002
17	17979	8.964205594994	1.002
17	18060	8.984205594994	1.002
17	18146	9.004205594994	1.002
17	18152	9.024205594994	1.002
17	18158	9.044205594994	1.002
17	18366	9.064205594994	1.002
17	18447	9.084205594994	1.002
17	18533	9.104205594994	1.002
17	18539	9.124205594994	1.002
17	18545	9.144205594994	1.002
17	18822	9.164205594994	1.002
17	18921	9.184205594994	1.002
17	19026	9.204205594994	1.002
17	19032	9.224205594994	1.002
17	19038	9.244205594994	1.002
17	19302	9.264205594994	1.002
17	19401	9.284205594994	1.002
17	19506	9.304205594994	1.002
17	19512	9.324205594994	1.002
17	19518	9.344205594994	1.002
17	19786	9.364205594994	1.002
17	19885	9.384205594994	1.002
17	19990	9.404205594994	1.002
17	19996	9.424205594994	1.002
17	20002	9.444205594994	1.002
17	20270	9.464205594994	1.002
17	20369	9.484205594994	1.002
17	20474	9.504205594994	1.002
17	20480	9.524205594994	1.002
17	20486	9.544205594994	1.002
17	20742	9.564205594994	1.002
17	20841	9.584205594994	1.002
17	20946	9.604205594994	1.002
17	20952	9.624205594994	1.002
17	20958	9.644205594994	1.002
17	21226	9.664205594994	1.002
17	21325	9.684205594994	1.002
17	21430	9.704205594994	1.002
17	21436	9.724205594994	1.002
17	21442	9.744205594994	1.002
17	21707	9.764205594994	1.002
17	21806	9.784205594994	1.002
17	21911	9.804205594994	1.002
17	21917	9.824205594994	1.002
17	21923	9.844205594994	1.002
17	22221	9.864205594994	1.002
17	22353	9.884205594994	1.002
17	22491	9.904205594994	1.002
17	22499	9.924205594994	1.002
17	22507	9.944205594994	1.002
17	22866	9.964205594994	1.002
17	22998	9.984205594994	1.002
17	23136	10.004205594994	1.002
17	23144	10.024205594994	1.002
17	23152	10.044205594994	1.002
17	23489	10.064205594994	1.002
17	23621	10.084205594994	1.002
17	23759	10.104205594994	1.002
17	23767	10.124205594994	1.002
17	23775	10.144205594994	1.002
17	24108	10.164205594994	1.002
17	24240	10.184205594994	1.002
17	24378	10.204205594994	1.002
17	24386	10.224205594994	1.002
17	24394	10.244205594994	1.002
17	24731	10.264205594994	1.002
17	24863	10.284205594994	1.002
17	25001	10.304205594994	1.002
17	25009	10.324205594994	1.002
17	25017	10.344205594994	1.002
17	25358	10.364205594994	1.002
17	25490	10.384205594994	1.002
17	25628	10.404205594994	1.002
17	25636	10.424205594994	1.002
17	25644	10.444205594994	1.002
17	25981	10.464205594994	1.002
17	26113	10.484205594994	1.002
17	26251	10.504205594994	1.002
17	26259	10.524205594994	1.002
17	26267	10.544205594994	1.002
17	26613	10.564205594994	1.002
17	26745	10.584205594994	1.002
17	26883	10.604205594994	1.002
17	26891	10.624205594994	1.002
17	26899	10.644205594994	1.002
17	27236	10.664205594994	1.002
17	27368	10.684205594994	1.002
17	27506	10.704205594994	1.002
17	27514	10.724205594994	1.002
17	27522	10.744205594994	1.002
17	27863	10.764205594994	1.002
17	27995	10.784205594994	1.002
17	28133	10.804205594994	1.002
17	28141	10.824205594994	1.002
17	28149	10.844205594994	1.002
17	28495	10.864205594994	1.002
17	28627	10.884205594994	1.002
17	28765	10.904205594994	1.002
17	28773	10.924205594994	1.002
17	28781	10.944205594994	1.002
17	29114	10.964205594994	1.002
17	29246	10.984205594994	1.002
17	29384	11.004205594994	1.002
17	29392	11.024205594994	1.002
17	29400	11.044205594994	1.002
17	29772	11.064205594994	1.002
17	29904	11.084205594994	1.002
17	30042	11.104205594994	1.002
17	30050	11.124205594994	1.002
17	30058	11.144205594994	1.002
17	30399	11.164205594994	1.002
17	30531	11.184205594994	1.002
17	30669	11.204205594994	1.002
17	30677	11.224205594994	1.002
17	30685	11.244205594994	1.002
17	31022	11.264205594994	1.002
17	31154	11.284205594994	1.002
17	31292	11.304205594994	1.002
17	31300	11.324205594994	1.002
17	31308	11.344205594994	1.002
17	31645	11.364205594994	1.002
17	31777	11.384205594994	1.002
17	31915	11.404205594994	1.002
17	31923	11.424205594994	1.002
17	31931	11.444205594994	1.002
17	32251	11.464205594994	1.002
17	32383	11.484205594994	1.002
17	32521	11.504205594994	1.002
17	32529	11.524205594994	1.002
17	32537	11.544205594994	1.002
17	32874	11.564205594994	1.002
17	33006	11.584205594994	1.002
17	33144	11.604205594994	1.002
17	33152	11.624205594994	1.002
17	33160	11.644205594994	1.002
17	33506	11.664205594994	1.002
17	33638	11.684205594994	1.002
17	33776	11.704205594994	1.002
17	33784	11.724205594994	1.002
17	33792	11.744205594994	1.002
17	34120	11.764205594994	1.002
17	34252	11.784205594994	1.002
17	34390	11.804205594994	1.002
17	34398	11.824205594994	1.002
17	34406	11.844205594994	1.002
17	34752	11.864205594994	1.002
17	34884	11.884205594994	1.002
17	35022	11.904205594994	1.002
17	35030	11.924205594994	1.002
17	35038	11.944205594994	1.002
17	35384	11.964205594994	1.002
17	35516	11.984205594994	1.002
17	35654	12.004205594994	1.002
17	35662	12.024205594994	1.002
17	35670	12.044205594994	1.002
17	36016	12.064205594994	1.002
17	36148	12.084205594994	1.002
17	36286	12.104205594994	1.002
17	36294	12.124205594994	1.002
17	36302	12.144205594994	1.002
17	36688	12.164205594994	1.002
17	36844	12.184205594994	1.002
17	37007	12.204205594994	1.002
17	37015	12.224205594994	1.002
17	37023	12.244205594994	1.002
17	37438	12.264205594994	1.002
17	37594	12.284205594994	1.002
17	37757	12.304205594994	1.002
17	37765	12.324205594994	1.002
17	37773	12.344205594994	1.002
17	38189	12.364205594994	1.002
17	38345	12.384205594994	1.002
17	38508	12.404205594994	1.002
17	38516	12.424205594994	1.002
17	38524	12.444205594994	1.002
17	38939	12.464205594994	1.002
17	39095	12.484205594994	1.002
17	39258	12.504205594994	1.002
17	39266	12.524205594994	1.002
17	39274	12.544205594994	1.002
17	39675	12.564205594994	1.002
17	39831	12.584205594994	1.002
17	39994	12.604205594994	1.002
17	40002	12.624205594994	1.002
17	40010	12.644205594994	1.002
17	40410	12.664205594994	1.002
17	40566	12.684205594994	1.002
17	40729	12.704205594994	1.002
17	40737	12.724205594994	1.002
17	40745	12.744205594994	1.002
17	41140	12.764205594994	1.002
17	41296	12.784205594994	1.002
17	41459	12.804205594994	1.002
17	41467	12.824205594994	1.002
17	41475	12.844205594994	1.002
17	41913	12.864205594994	1.002
17	42108	12.884205594994	1.002
17	42310	12.904205594994	1.002
17	42320	12.924205594994	1.002
17	42330	12.944205594994	1.002
17	42811	12.964205594994	1.002
17	43006	12.984205594994	1.002
17	43208	13.004205594994	1.002
17	43218	13.024205594994	1.002
17	43228	13.044205594994	1.002
17	43709	13.064205594994	1.002
17	43904	13.084205594994	1.002
17	44106	13.104205594994	1.002
17	44116	13.124205594994	1.002
17	44126	13.144205594994	1.002
17	44643	13.164205594994	1.002
17	44838	13.184205594994	1.002
17	45040	13.204205594994	1.002
17	45050	13.224205594994	1.002
17	45060	13.244205594994	1.002
17	45583	13.264205594994	1.002
17	45778	13.284205594994	1.002
17	45980	13.304205594994	1.002
17	45990	13.324205594994	1.002
17	46000	13.344205594994	1.002
17	46475	13.364205594994	1.002
17	46670	13.384205594994	1.002
17	46872	13.404205594994	1.002
17	46882	13.424205594994	1.002
17	46892	13.444205594994	1.002
17	47388	13.464205594994	1.002
17	47583	13.484205594994	1.002
17	47785	13.504205594994	1.002
17	47795	13.524205594994	1.002
17	47805	13.544205594994	1.002
17	48298	13.564205594994	1.002
17	48493	13.584205594994	1.002
17	48695	13.604205594994	1.002
17	48705	13.624205594994	1.002
17	48715	13.644205594994	1.002
17	49189	13.664205594994	1.002
17	49384	13.684205594994	1.002
17	49586	13.704205594994	1.002
17	49596	13.724205594994	1.002
17	49606	13.744205594994	1.002
17	50088	13.764205594994	1.002
17	50283	13.784205594994	1.002
17	50485	13.804205594994	1.002
17	50495	13.824205594994	1.002
17	50505	13.844205594994	1.002
17	50998	13.864205594994	1.002
17	51193	13.884205594994	1.002
17	51395	13.904205594994	1.002
17	51405	13.924205594994	1.002
17	51415	13.944205594994	1.002
17	51889	13.964205594994	1.002
17	52084	13.984205594994	1.002
17	52286	14.004205594994	1.002
17	52296	14.024205594994	1.002
17	52306	14.044205594994	1.002
17	52802	14.064205594994	1.002
17	52997	14.084205594994	1.002
17	53199	14.104205594994	1.002
17	53209	14.124205594994	1.002
17	53219	14.144205594994	1.002
17	53704	14.164205594994	1.002
17	53899	14.184205594994	1.002
17	54101	14.204205594994	1.002
17	54111	14.224205594994	1.002
17	54121	14.244205594994	1.002
17	54634	14.264205594994	1.002
17	54829	14.284205594994	1.002
17	55031	14.304205594994	1.002
17	55041	14.324205594994	1.002
17	55051	14.344205594994	1.002
17	55563	14.364205594994	1.002
17	55758	14.384205594994	1.002
17	55960	14.404205594994	1.002
17	55970	14.424205594994	1.002
17	55980	14.444205594994	1.002
17	56454	14.464205594994	1.002
17	56649	14.484205594994	1.002
17	56851	14.504205594994	1.002
17	56861	14.524205594994	1.002
17	56871	14.544205594994	1.002
17	57368	14.564205594994	1.002
17	57563	14.584205594994	1.002
17	57765	14.604205594994	1.002
17	57775	14.624205594994	1.002
17	57785	14.644205594994	1.002
17	58275	14.664205594994	1.002
17	58470	14.684205594994	1.002
17	58672	14.704205594994	1.002
17	58682	14.724205594994	1.002
17	58692	14.744205594994	1.002
17	59177	14.764205594994	1.002
17	59372	14.784205594994	1.002
17	59574	14.804205594994	1.002
17	59584	14.824205594994	1.002
17	59594	14.844205594994	1.002
17	60095	14.864205594994	1.002
17	60290	14.884205594994	1.002
17	60492	14.904205594994	1.002
17	60502	14.924205594994	1.002
17	60512	14.944205594994	1.002
17	61018	14.964205594994	1.002
17	61213	14.984205594994	1.002
17	61415	15.004205594994	1.002
17	61425	15.024205594994	1.002
17	61435	15.044205594994	1.002
17	61925	15.064205594994	1.002
17	62120	15.084205594994	1.002
17	62322	15.104205594994	1.002
17	62332	15.124205594994	1.002
17	62342	15.144205594994	1.002
17	62849	15.164205594994	1.002
17	63044	15.184205594994	1.002
17	63246	15.204205594994	1.002
17	63256	15.224205594994	1.002
17	63266	15.244205594994	1.002
17	63756	15.264205594994	1.002
17	63951	15.284205594994	1.002
17	64153	15.304205594994	1.002
17	64163	15.324205594994	1.002
17	64173	15.344205594994	1.002
17	64653	15.364205594994	1.002
17	64848	15.384205594994	1.002
17	65050	15.404205594994	1.002
17	65060	15.424205594994	1.002
17	65070	15.444205594994	1.002
17	65566	15.464205594994	1.002
17	65761	15.484205594994	1.002
17	65963	15.504205594994	1.002
17	65973	15.524205594994	1.002
17	65983	15.544205594994	1.002
17	66495	15.564205594994	1.002
17	66690	15.584205594994	1.002
17	66892	15.604205594994	1.002
17	66902	15.624205594994	1.002
17	66912	15.644205594994	1.002
17	67408	15.664205594994	1.002
17	67603	15.684205594994	1.002
17	67805	15.704205594994	1.002
17	67815	15.724205594994	1.002
17	67825	15.744205594994	1.002
17	68310	15.764205594994	1.002
17	68505	15.784205594994	1.002
17	68707	15.804205594994	1.002
17	68717	15.824205594994	1.002
17	68727	15.844205594994	1.002
17	69228	15.864205594994	1.002
17	69423	15.884205594994	1.002
17	69625	15.904205594994	1.002
17	69635	15.924205594994	1.002
17	69645	15.944205594994	1.002
17	70146	15.964205594994	1.002
17	70341	15.984205594994	1.002
17	70543	16.004205594994	1.002
17	70553	16.024205594994	1.002
17	70563	16.044205594994	1.002
17	71053	16.064205594994	1.002
17	71248	16.084205594994	1.002
17	71450	16.104205594994	1.002
17	71460	16.124205594994	1.002
17	71470	16.144205594994	1.002
17	71955	16.164205594994	1.002
17	72150	16.184205594994	1.002
17	72352	16.204205594994	1.002
17	72362	16.224205594994	1.002
17	72372	16.244205594994	1.002
17	72868	16.264205594994	1.002
17	73063	16.284205594994	1.002
17	73265	16.304205594994	1.002
17	73275	16.324205594994	1.002
17	73285	16.344205594994	1.002
17	73781	16.364205594994	1.002
17	73976	16.384205594994	1.002
17	74178	16.404205594994	1.002
17	74188	16.424205594994	1.002
17	74198	16.444205594994	1.002
17	74678	16.464205594994	1.002
17	74873	16.484205594994	1.002
17	75075	16.504205594994	1.002
17	75085	16.524205594994	1.002
17	75095	16.544205594994	1.002
17	75563	16.564205594994	1.002
17	75758	16.584205594994	1.002
17	75960	16.604205594994	1.002
17	75970	16.624205594994	1.002
17	75980	16.644205594994	1.002
17	76492	16.664205594994	1.002
17	76687	16.684205594994	1.002
17	76889	16.704205594994	1.002
17	76899	16.724205594994	1.002
17	76909	16.744205594994	1.002
17	77405	16.764205594994	1.002
17	77600	16.784205594994	1.002
17	77802	16.804205594994	1.002
17	77812	16.824205594994	1.002
17	77822	16.844205594994	1.002
17	78301	16.864205594994	1.002
17	78496	16.884205594994	1.002
17	78698	16.904205594994	1.002
17	78708	16.924205594994	1.002
17	78718	16.944205594994	1.002
17	79198	16.964205594994	1.002
17	79393	16.984205594994	1.002
17	79595	17.004205594994	1.002
17	79605	17.024205594994	1.002
17	79615	17.044205594994	1.002
17	80111	17.064205594994	1.002
17	80306	17.084205594994	1.002
17	80508	17.104205594994	1.002
17	80518	17.124205594994	1.002
17	80528	17.144205594994	1.002
17	81013	17.164205594994	1.002
17	81208	17.184205594994	1.002
17	81410	17.204205594994	1.002
17	81420	17.224205594994	1.002
17	81430	17.244205594994	1.002
17	81937	17.264205594994	1.002
17	82132	17.284205594994	1.002
17	82334	17.304205594994	1.002
17	82344	17.324205594994	1.002
17	82354	17.344205594994	1.002
17	82850	17.364205594994	1.002
17	83045	17.384205594994	1.002
17	83247	17.404205594994	1.002
17	83257	17.424205594994	1.002
17	83267	17.444205594994	1.002
17	83779	17.464205594994	1.002
17	83974	17.484205594994	1.002
17	84176	17.504205594994	1.002
17	84186	17.524205594994	1.002
17	84196	17.544205594994	1.002
17	84665	17.564205594994	1.002
17	84860	17.584205594994	1.002
17	85062	17.604205594994	1.002
17	85072	17.624205594994	1.002
17	85082	17.644205594994	1.002
17	85594	17.664205594994	1.002
17	85789	17.684205594994	1.002
17	85991	17.704205594994	1.002
17	86001	17.724205594994	1.002
17	86011	17.744205594994	1.002
17	86496	17.764205594994	1.002
17	86691	17.784205594994	1.002
17	86893	17.804205594994	1.002
17	86903	17.824205594994	1.002
17	86913	17.844205594994	1.002
17	87436	17.864205594994	1.002
17	87631	17.884205594994	1.002
17	87833	17.904205594994	1.002
17	87843	17.924205594994	1.002
17	87853	17.944205594994	1.002
17	88349	17.964205594994	1.002
17	88544	17.984205594994	1.002
17	88746	18.004205594994	1.002
17	88756	18.024205594994	1.002
17	88766	18.044205594994	1.002
17	89257	18.064205594994	1.002
17	89452	18.084205594994	1.002
17	89654	18.104205594994	1.002
17	89664	18.124205594994	1.002
17	89674	18.144205594994	1.002
17	90186	18.164205594994	1.002
17	90381	18.184205594994	1.002
17	90583	18.204205594994	1.002
17	90593	18.224205594994	1.002
17	90603	18.244205594994	1.002
17	91104	18.264205594994	1.002
17	91299	18.284205594994	1.002
17	91501	18.304205594994	1.002
17	91511	18.324205594994	1.002
17	91521	18.344205594994	1.002
17	91996	18.364205594994	1.002
17	92191	18.384205594994	1.002
17	92393	18.404205594994	1.002
17	92403	18.424205594994	1.002
17	92413	18.444205594994	1.002
17	92941	18.464205594994	1.002
17	93136	18.484205594994	1.002
17	93338	18.504205594994	1.002
17	93348	18.524205594994	1.002
17	93358	18.544205594994	1.002
17	93832	18.564205594994	1.002
17	94027	18.584205594994	1.002
17	94229	18.604205594994	1.002
17	94239	18.624205594994	1.002
17	94249	18.644205594994	1.002
17	94745	18.664205594994	1.002
17	94940	18.684205594994	1.002
17	95142	18.704205594994	1.002
17	95152	18.724205594994	1.002
17	95162	18.744205594994	1.002
17	95663	18.764205594994	1.002
17	95858	18.784205594994	1.002
17	96060	18.804205594994	1.002
17	96070	18.824205594994	1.002
17	96080	18.844205594994	1.002
17	96565	18.864205594994	1.002
17	96760	18.884205594994	1.002
17	96962	18.904205594994	1.002
17	96972	18.924205594994	1.002
17	96982	18.944205594994	1.002
17	97456	18.964205594994	1.002
17	97651	18.984205594994	1.002
17	97853	19.004205594994	1.002
17	97863	19.024205594994	1.002
17	97873	19.044205594994	1.002
17	98369	19.064205594994	1.002
17	98564	19.084205594994	1.002
17	98766	19.104205594994	1.002
17	98776	19.124205594994	1.002
17	98786	19.144205594994	1.002
17	99282	19.164205594994	1.002
17	99477	19.184205594994	1.002
17	99679	19.204205594994	1.002
17	99689	19.224205594994	1.002
17	99699	19.244205594994	1.002
17	100184	19.264205594994	1.002
17	100379	19.284205594994	1.002
17	100581	19.304205594994	1.002
17	100591	19.324205594994	1.002
17	100601	19.344205594994	1.002
17	101070	19.364205594994	1.002
17	101265	19.384205594994	1.002
17	101467	19.404205594994	1.002
17	101477	19.424205594994	1.002
17	101487	19.444205594994	1.002
17	101977	19.464205594994	1.002
17	102172	19.484205594994	1.002
17	102374	19.504205594994	1.002
17	102384	19.524205594994	1.002
17	102394	19.544205594994	1.002
17	102857	19.564205594994	1.002
17	103052	19.584205594994	1.002
17	103254	19.604205594994	1.002
17	103264	19.624205594994	1.002
17	103274	19.644205594994	1.002
17	103765	19.664205594994	1.002
17	103960	19.684205594994	1.002
17	104162	19.704205594994	1.002
17	104172	19.724205594994	1.002
17	104182	19.744205594994	1.002
17	104683	19.764205594994	1.002
17	104878	19.784205594994	1.002
17	105080	19.804205594994	1.002
17	105090	19.824205594994	1.002
17	105100	19.844205594994	1.002
17	105590	19.864205594994	1.002
17	105785	19.884205594994	1.002
17	105987	19.904205594994	1.002
17	105997	19.924205594994	1.002
17	106007	19.944205594994	1.002
17	106471	19.964205594994	1.002
17	106666	19.984205594994	1.002
17	106868	20.004205594994	1.002
17	106878	20.024205594994	1.002
17	106888	20.044205594994	1.002
17	107373	20.064205594994	1.002
17	107568	20.084205594994	1.002
17	107770	20.104205594994	1.002
17	107780	20.124205594994	1.002
17	107790	20.144205594994	1.002
17	108302	20.164205594994	1.002
17	108497	20.184205594994	1.002
17	108699	20.204205594994	1.002
17	108709	20.224205594994	1.002
17	108719	20.244205594994	1.002
17	109220	20.264205594994	1.002
17	109415	20.284205594994	1.002
17	109617	20.304205594994	1.002
17	109627	20.324205594994	1.002
17	109637	20.344205594994	1.002
17	110138	20.364205594994	1.002
17	110333	20.384205594994	1.002
17	110535	20.404205594994	1.002
17	110545	20.424205594994	1.002
17	110555	20.444205594994	1.002
17	111040	20.464205594994	1.002
17	111235	20.484205594994	1.002
17	111437	20.504205594994	1.002
17	111447	20.524205594994	1.002
17	111457	20.544205594994	1.002
17	111947	20.564205594994	1.002
17	112142	20.584205594994	1.002
17	112344	20.604205594994	1.002
17	112354	20.624205594994	1.002
17	112364	20.644205594994	1.002
17	112844	20.664205594994	1.002
17	113039	20.684205594994	1.002
17	113241	20.704205594994	1.002
17	113251	20.724205594994	1.002
17	113261	20.744205594994	1.002
17	113751	20.764205594994	1.002
17	113946	20.784205594994	1.002
17	114148	20.804205594994	1.002
17	114158	20.824205594994	1.002
17	114168	20.844205594994	1.002
17	114669	20.864205594994	1.002
17	114864	20.884205594994	1.002
17	115066	20.904205594994	1.002
17	115076	20.924205594994	1.002
17	115086	20.944205594994	1.002
17	115566	20.964205594994	1.002
17	115761	20.984205594994	1.002
17	115963	21.004205594994	1.002
17	115973	21.024205594994	1.002
17	115983	21.044205594994	1.002
17	116462	21.064205594994	1.002
17	116657	21.084205594994	1.002
17	116859	21.104205594994	1.002
17	116869	21.124205594994	1.002
17	116879	21.144205594994	1.002
17	117343	21.164205594994	1.002
17	117538	21.184205594994	1.002
17	117740	21.204205594994	1.002
17	117750	21.224205594994	1.002
17	117760	21.244205594994	1.002
17	118261	21.264205594994	1.002
17	118456	21.284205594994	1.002
17	118658	21.304205594994	1.002
17	118668	21.324205594994	1.002
17	118678	21.344205594994	1.002
17	119163	21.364205594994	1.002
17	119358	21.384205594994	1.002
17	119560	21.404205594994	1.002
17	119570	21.424205594994	1.002
17	119580	21.444205594994	1.002
17	120070	21.464205594994	1.002
17	120265	21.484205594994	1.002
17	120467	21.504205594994	1.002
17	120477	21.524205594994	1.002
17	120487	21.544205594994	1.002
17	120983	21.564205594994	1.002
17	121178	21.584205594994	1.002
17	121380	21.604205594994	1.002
17	121390	21.624205594994	1.002
17	121400	21.644205594994	1.002
17	121906	21.664205594994	1.002
17	122101	21.684205594994	1.002
17	122303	21.704205594994	1.002
17	122313	21.724205594994	1.002
17	122323	21.744205594994	1.002
17	122824	21.764205594994	1.002
17	123019	21.784205594994	1.002
17	123221	21.804205594994	1.002
17	123231	21.824205594994	1.002
17	123241	21.844205594994	1.002
17	123737	21.864205594994	1.002
17	123932	21.884205594994	1.002
17	124134	21.904205594994	1.002
17	124144	21.924205594994	1.002
17	124154	21.944205594994	1.002
17	124666	21.964205594994	1.002
17	124861	21.984205594994	1.002
17	125063	22.004205594994	1.002
17	125073	22.024205594994	1.002
17	125083	22.044205594994	1.002
17	125611	22.064205594994	1.002
17	125806	22.084205594994	1.002
17	126008	22.104205594994	1.002
17	126018	22.124205594994	1.002
17	126028	22.144205594994	1.002
17	126502	22.164205594994	1.002
17	126697	22.184205594994	1.002
17	126899	22.204205594994	1.002
17	126909	22.224205594994	1.002
17	126919	22.244205594994	1.002
17	127431	22.264205594994	1.002
17	127626	22.284205594994	1.002
17	127828	22.304205594994	1.002
17	127838	22.324205594994	1.002
17	127848	22.344205594994	1.002
17	128333	22.364205594994	1.002
17	128528	22.384205594994	1.002
17	128730	22.404205594994	1.002
17	128740	22.424205594994	1.002
17	128750	22.444205594994	1.002
17	129235	22.464205594994	1.002
17	129430	22.484205594994	1.002
17	129632	22.504205594994	1.002
17	129642	22.524205594994	1.002
17	129652	22.544205594994	1.002
17	130143	22.564205594994	1.002
17	130338	22.584205594994	1.002
17	130540	22.604205594994	1.002
17	130550	22.624205594994	1.002
17	130560	22.644205594994	1.002
17	131061	22.664205594994	1.002
17	131256	22.684205594994	1.002
17	131458	22.704205594994	1.002
17	131468	22.724205594994	1.002
17	131478	22.744205594994	1.002
17	131985	22.764205594994	1.002
17	132180	22.784205594994	1.002
17	132382	22.804205594994	1.002
17	132392	22.824205594994	1.002
17	132402	22.844205594994	1.002
17	132871	22.864205594994	1.002
17	133066	22.884205594994	1.002
17	133268	22.904205594994	1.002
17	133278	22.924205594994	1.002
17	133288	22.944205594994	1.002
17	133773	22.964205594994	1.002
17	133968	22.984205594994	1.002
17	134170	23.004205594994	1.002
17	134180	23.024205594994	1.002
17	134190	23.044205594994	1.002
17	134675	23.064205594994	1.002
17	134870	23.084205594994	1.002
17	135072	23.104205594994	1.002
17	135082	23.124205594994	1.002
17	135092	23.144205594994	1.002
17	135604	23.164205594994	1.002
17	135799	23.184205594994	1.002
17	136001	23.204205594994	1.002
17	136011	23.224205594994	1.002
17	136021	23.244205594994	1.002
17	136533	23.264205594994	1.002
17	136728	23.284205594994	1.002
17	136930	23.304205594994	1.002
17	136940	23.324205594994	1.002
17	136950	23.344205594994	1.002
17	137446	23.364205594994	1.002
17	137641	23.384205594994	1.002
17	137843	23.404205594994	1.002
17	137853	23.424205594994	1.002
17	137863	23.444205594994	1.002
17	138343	23.464205594994	1.002
17	138538	23.484205594994	1.002
17	138740	23.504205594994	1.002
17	138750	23.524205594994	1.002
17	138760	23.544205594994	1.002
17	139266	23.564205594994	1.002
17	139461	23.584205594994	1.002
17	139663	23.604205594994	1.002
17	139673	23.624205594994	1.002
17	139683	23.644205594994	1.002
17	140190	23.664205594994	1.002
17	140385	23.684205594994	1.002
17	140587	23.704205594994	1.002
17	140597	23.724205594994	1.002
17	140607	23.744205594994	1.002
17	141108	23.764205594994	1.002
17	141303	23.784205594994	1.002
17	141505	23.804205594994	1.002
17	141515	23.824205594994	1.002
17	141525	23.844205594994	1.002
17	142021	23.864205594994	1.002
17	142216	23.884205594994	1.002
17	142418	23.904205594994	1.002
17	142428	23.924205594994	1.002
17	142438	23.944205594994	1.002
17	142961	23.964205594994	1.002
17	143156	23.984205594994	1.002
17	143358	24.004205594994	1.002
17	143368	24.024205594994	1.002
17	143378	24.044205594994	1.002
17	143879	24.064205594994	1.002
17	144074	24.084205594994	1.002
17	144276	24.104205594994	1.002
17	144286	24.124205594994	1.002
17	144296	24.144205594994	1.002
17	144781	24.164205594994	1.002
17	144976	24.184205594994	1.002
17	145178	24.204205594994	1.002
17	145188	24.224205594994	1.002
17	145198	24.244205594994	1.002
17	145678	24.264205594994	1.002
17	145873	24.284205594994	1.002
17	146075	24.304205594994	1.002
17	146085	24.324205594994	1.002
17	146095	24.344205594994	1.002
17	146618	24.364205594994	1.002
17	146813	24.384205594994	1.002
17	147015	24.404205594994	1.002
17	147025	24.424205594994	1.002
17	147035	24.444205594994	1.002
17	147531	24.464205594994	1.002
17	147726	24.484205594994	1.002
17	147928	24.504205594994	1.002
17	147938	24.524205594994	1.002
17	147948	24.544205594994	1.002
17	148428	24.564205594994	1.002
17	148623	24.584205594994	1.002
17	148825	24.604205594994	1.002
17	148835	24.624205594994	1.002
17	148845	24.644205594994	1.002
17	149346	24.664205594994	1.002
17	149541	24.684205594994	1.002
17	149743	24.704205594994	1.002
17	149753	24.724205594994	1.002
17	149763	24.744205594994	1.002
17	150275	24.764205594994	1.002
17	150470	24.784205594994	1.002
17	150672	24.804205594994	1.002
17	150682	24.824205594994	1.002
17	150692	24.844205594994	1.002
17	151177	24.864205594994	1.002
17	151372	24.884205594994	1.002
17	151574	24.904205594994	1.002
17	151584	24.924205594994	1.002
17	151594	24.944205594994	1.002
17	152090	24.964205594994	1.002
17	152285	24.984205594994	1.002
17	152487	25.004205594994	1.002
17	152497	25.024205594994	1.002
17	152507	25.044205594994	1.002
17	152997	25.064205594994	1.002
17	153192	25.084205594994	1.002
17	153394	25.104205594994	1.002
17	153404	25.124205594994	1.002
17	153414	25.144205594994	1.002
17	153910	25.164205594994	1.002
17	154105	25.184205594994	1.002
17	154307	25.204205594994	1.002
17	154317	25.224205594994	1.002
17	154327	25.244205594994	1.002
17	154818	25.264205594994	1.002
17	155013	25.284205594994	1.002
17	155215	25.304205594994	1.002
17	155225	25.324205594994	1.002
17	155235	25.344205594994	1.002
17	155720	25.364205594994	1.002
17	155915	25.384205594994	1.002
17	156117	25.404205594994	1.002
17	156127	25.424205594994	1.002
17	156137	25.444205594994	1.002
17	156622	25.464205594994	1.002
17	156817	25.484205594994	1.002
17	157019	25.504205594994	1.002
17	157029	25.524205594994	1.002
17	157039	25.544205594994	1.002
17	157562	25.564205594994	1.002
17	157757	25.584205594994	1.002
17	157959	25.604205594994	1.002
17	157969	25.624205594994	1.002
17	157979	25.644205594994	1.002
17	158453	25.664205594994	1.002
17	158648	25.684205594994	1.002
17	158850	25.704205594994	1.002
17	158860	25.724205594994	1.002
17	158870	25.744205594994	1.002
17	159376	25.764205594994	1.002
17	159571	25.784205594994	1.002
17	159773	25.804205594994	1.002
17	159783	25.824205594994	1.002
17	159793	25.844205594994	1.002
17	160283	25.864205594994	1.002
17	160478	25.884205594994	1.002
17	160680	25.904205594994	1.002
17	160690	25.924205594994	1.002
17	160700	25.944205594994	1.002
17	161190	25.964205594994	1.002
17	161385	25.984205594994	1.002
17	161587	26.004205594994	1.002
17	161597	26.024205594994	1.002
17	161607	26.044205594994	1.002
17	162092	26.064205594994	1.002
17	162287	26.084205594994	1.002
17	162489	26.104205594994	1.002
17	162499	26.124205594994	1.002
17	162509	26.144205594994	1.002
17	163026	26.164205594994	1.002
17	163221	26.184205594994	1.002
17	163423	26.204205594994	1.002
17	163433	26.224205594994	1.002
17	163443	26.244205594994	1.002
17	163955	26.264205594994	1.002
17	164150	26.284205594994	1.002
17	164352	26.304205594994	1.002
17	164362	26.324205594994	1.002
17	164372	26.344205594994	1.002
17	164889	26.364205594994	1.002
17	165084	26.384205594994	1.002
17	165286	26.404205594994	1.002
17	165296	26.424205594994	1.002
17	165306	26.444205594994	1.002
17	165791	26.464205594994	1.002
17	165986	26.484205594994	1.002
17	166188	26.504205594994	1.002
17	166198	26.524205594994	1.002
17	166208	26.544205594994	1.002
17	166704	26.564205594994	1.002
17	166899	26.584205594994	1.002
17	167101	26.604205594994	1.002
17	167111	26.624205594994	1.002
17	167121	26.644205594994	1.002
17	167595	26.664205594994	1.002
17	167790	26.684205594994	1.002
17	167992	26.704205594994	1.002
17	168002	26.724205594994	1.002
17	168012	26.744205594994	1.002
17	168503	26.764205594994	1.002
17	168698	26.784205594994	1.002
17	168900	26.804205594994	1.002
17	168910	26.824205594994	1.002
17	168920	26.844205594994	1.002
17	169416	26.864205594994	1.002
17	169611	26.884205594994	1.002
17	169813	26.904205594994	1.002
17	169823	26.924205594994	1.002
17	169833	26.944205594994	1.002
17	170323	26.964205594994	1.002
17	170518	26.984205594994	1.002
17	170720	27.004205594994	1.002
17	170730	27.024205594994	1.002
17	170740	27.044205594994	1.002
17	171220	27.064205594994	1.002
17	171415	27.084205594994	1.002
17	171617	27.104205594994	1.002
17	171627	27.124205594994	1.002
17	171637	27.144205594994	1.002
17	172117	27.164205594994	1.002
17	172312	27.184205594994	1.002
17	172514	27.204205594994	1.002
17	172524	27.224205594994	1.002
17	172534	27.244205594994	1.002
17	173019	27.264205594994	1.002
17	173214	27.284205594994	1.002
17	173416	27.304205594994	1.002
17	173426	27.324205594994	1.002
17	173436	27.344205594994	1.002
17	173921	27.364205594994	1.002
17	174116	27.384205594994	1.002
17	174318	27.404205594994	1.002
17	174328	27.424205594994	1.002
17	174338	27.444205594994	1.002
17	174823	27.464205594994	1.002
17	175018	27.484205594994	1.002
17	175220	27.504205594994	1.002
17	175230	27.524205594994	1.002
17	175240	27.544205594994	1.002
17	175736	27.564205594994	1.002
17	175931	27.584205594994	1.002
17	176133	27.604205594994	1.002
17	176143	27.624205594994	1.002
17	176153	27.644205594994	1.002
17	176638	27.664205594994	1.002
17	176833	27.684205594994	1.002
17	177035	27.704205594994	1.002
17	177045	27.724205594994	1.002
17	177055	27.744205594994	1.002
17	177578	27.764205594994	1.002
17	177773	27.784205594994	1.002
17	177975	27.804205594994	1.002
17	177985	27.824205594994	1.002
17	177995	27.844205594994	1.002
17	178491	27.864205594994	1.002
17	178686	27.884205594994	1.002
17	178888	27.904205594994	1.002
17	178898	27.924205594994	1.002
17	178908	27.944205594994	1.002
17	179404	27.964205594994	1.002
17	179599	27.984205594994	1.002
17	179801	28.004205594994	1.002
17	179811	28.024205594994	1.002
17	179821	28.044205594994	1.002
17	180317	28.064205594994	1.002
17	180512	28.084205594994	1.002
17	180714	28.104205594994	1.002
17	180724	28.124205594994	1.002
17	180734	28.144205594994	1.002
17	181230	28.164205594994	1.002
17	181425	28.184205594994	1.002
17	181627	28.204205594994	1.002
17	181637	28.224205594994	1.002
17	181647	28.244205594994	1.002
17	182143	28.264205594994	1.002
17	182338	28.284205594994	1.002
17	182540	28.304205594994	1.002
17	182550	28.324205594994	1.002
17	182560	28.344205594994	1.002
17	183050	28.364205594994	1.002
17	183245	28.384205594994	1.002
17	183447	28.404205594994	1.002
17	183457	28.424205594994	1.002
17	183467	28.444205594994	1.002
17	183957	28.464205594994	1.002
17	184152	28.484205594994	1.002
17	184354	28.504205594994	1.002
17	184364	28.524205594994	1.002
17	184374	28.544205594994	1.002
17	184865	28.564205594994	1.002
17	185060	28.584205594994	1.002
17	185262	28.604205594994	1.002
17	185272	28.624205594994	1.002
17	185282	28.644205594994	1.002
17	185789	28.664205594994	1.002
17	185984	28.684205594994	1.002
17	186186	28.704205594994	1.002
17	186196	28.724205594994	1.002
17	186206	28.744205594994	1.002
17	186723	28.764205594994	1.002
17	186918	28.784205594994	1.002
17	187120	28.804205594994	1.002
17	187130	28.824205594994	1.002
17	187140	28.844205594994	1.002
17	187652	28.864205594994	1.002
17	187847	28.884205594994	1.002
17	188049	28.904205594994	1.002
17	188059	28.924205594994	1.002
17	188069	28.944205594994	1.002
17	188597	28.964205594994	1.002
17	188792	28.984205594994	1.002
17	188994	29.004205594994	1.002
17	189004	29.024205594994	1.002
17	189014	29.044205594994	1.002
17	189526	29.064205594994	1.002
17	189721	29.084205594994	1.002
17	189923	29.104205594994	1.002
17	189933	29.124205594994	1.002
17	189943	29.144205594994	1.002
17	190434	29.164205594994	1.002
17	190629	29.184205594994	1.002
17	190831	29.204205594994	1.002
17	190841	29.224205594994	1.002
17	190851	29.244205594994	1.002
17	191352	29.264205594994	1.002
17	191547	29.284205594994	1.002
17	191749	29.304205594994	1.002
17	191759	29.324205594994	1.002
17	191769	29.344205594994	1.002
17	192254	29.364205594994	1.002
17	192449	29.384205594994	1.002
17	192651	29.404205594994	1.002
17	192661	29.424205594994	1.002
17	192671	29.444205594994	1.002
17	193156	29.464205594994	1.002
17	193351	29.484205594994	1.002
17	193553	29.504205594994	1.002
17	193563	29.524205594994	1.002
17	193573	29.544205594994	1.002
17	194058	29.564205594994	1.002
17	194253	29.584205594994	1.002
17	194455	29.604205594994	1.002
17	194465	29.624205594994	1.002
17	194475	29.644205594994	1.002
17	194960	29.664205594994	1.002
17	195155	29.684205594994	1.002
17	195357	29.704205594994	1.002
17	195367	29.724205594994	1.002
17	195377	29.744205594994	1.002
17	195868	29.764205594994	1.002
17	196063	29.784205594994	1.002
17	196265	29.804205594994	1.002
17	196275	29.824205594994	1.002
17	196285	29.844205594994	1.002
17	196802	29.864205594994	1.002
17	196997	29.884205594994	1.002
17	197199	29.904205594994	1.002
17	197209	29.924205594994	1.002
17	197219	29.944205594994	1.002
17	197731	29.964205594994	1.002
17	197926	29.984205594994	1.002
17	198128	30.004205594994	1.002
17	198138	30.024205594994	1.002
17	198148	30.044205594994	1.002
17	198649	30.064205594994	1.002
17	198844	30.084205594994	1.002
17	199046	30.104205594994	1.002
17	199056	30.124205594994	1.002
17	199066	30.144205594994	1.002
17	199567	30.164205594994	1.002
17	199762	30.184205594994	1.002
17	199964	30.204205594994	1.002
17	199974	30.224205594994	1.002
17	199984	30.244205594994	1.002
17	200474	30.264205594994	1.002
17	200669	30.284205594994	1.002
17	200871	30.304205594994	1.002
17	200881	30.324205594994	1.002
17	200891	30.344205594994	1.002
17	201392	30.364205594994	1.002
17	201587	30.384205594994	1.002
17	201789	30.404205594994	1.002
17	201799	30.424205594994	1.002
17	201809	30.444205594994	1.002
17	202300	30.464205594994	1.002
17	202495	30.484205594994	1.002
17	202697	30.504205594994	1.002
17	202707	30.524205594994	1.002
17	202717	30.544205594994	1.002
17	203213	30.564205594994	1.002
17	203408	30.584205594994	1.002
17	203610	30.604205594994	1.002
17	203620	30.624205594994	1.002
17	203630	30.644205594994	1.002
17	204147	30.664205594994	1.002
17	204342	30.684205594994	1.002
17	204544	30.704205594994	1.002
17	204554	30.724205594994	1.002
17	204564	30.744205594994	1.002
17	205060	30.764205594994	1.002
17	205255	30.784205594994	1.002
17	205457	30.804205594994	1.002
17	205467	30.824205594994	1.002
17	205477	30.844205594994	1.002
17	205978	30.864205594994	1.002
17	206173	30.884205594994	1.002
17	206375	30.904205594994	1.002
17	206385	30.924205594994	1.002
17	206395	30.944205594994	1.002
17	206875	30.964205594994	1.002
17	207070	30.984205594994	1.002
17	207272	31.004205594994	1.002
17	207282	31.024205594994	1.002
17	207292	31.044205594994	1.002
17	207761	31.064205594994	1.002
17	207956	31.084205594994	1.002
17	208158	31.104205594994	1.002
17	208168	31.124205594994	1.002
17	208178	31.144205594994	1.002
17	208663	31.164205594994	1.002
17	208858	31.184205594994	1.002
17	209060	31.204205594994	1.002
17	209070	31.224205594994	1.002
17	209080	31.244205594994	1.002
17	209571	31.264205594994	1.002
17	209766	31.284205594994	1.002
17	209968	31.304205594994	1.002
17	209978	31.324205594994	1.002
17	209988	31.344205594994	1.002
17	210489	31.364205594994	1.002
17	210684	31.384205594994	1.002
17	210886	31.404205594994	1.002
17	210896	31.424205594994	1.002
17	210906	31.444205594994	1.002
17	211396	31.464205594994	1.002
17	211591	31.484205594994	1.002
17	211793	31.504205594994	1.002
17	211803	31.524205594994	1.002
17	211813	31.544205594994	1.002
17	212304	31.564205594994	1.002
17	212499	31.584205594994	1.002
17	212701	31.604205594994	1.002
17	212711	31.624205594994	1.002
17	212721	31.644205594994	1.002
17	213211	31.664205594994	1.002
17	213406	31.684205594994	1.002
17	213608	31.704205594994	1.002
17	213618	31.724205594994	1.002
17	213628	31.744205594994	1.002
17	214108	31.764205594994	1.002
17	214303	31.784205594994	1.002
17	214505	31.804205594994	1.002
17	214515	31.824205594994	1.002
17	214525	31.844205594994	1.002
17	215037	31.864205594994	1.002
17	215232	31.884205594994	1.002
17	215434	31.904205594994	1.002
17	215444	31.924205594994	1.002
17	215454	31.944205594994	1.002
17	215950	31.964205594994	1.002
17	216145	31.984205594994	1.002
17	216347	32.004205594994	1.002
17	216357	32.024205594994	1.002
17	216367	32.044205594994	1.002
17	216868	32.064205594994	1.002
17	217063	32.084205594994	1.002
17	217265	32.104205594994	1.002
17	217275	32.124205594994	1.002
17	217285	32.144205594994	1.002
17	217775	32.164205594994	1.002
17	217970	32.184205594994	1.002
17	218172	32.204205594994	1.002
17	218182	32.224205594994	1.002
17	218192	32.244205594994	1.002
17	218704	32.264205594994	1.002
17	218899	32.284205594994	1.002
17	219101	32.304205594994	1.002
17	219111	32.324205594994	1.002
17	219121	32.344205594994	1.002
17	219601	32.364205594994	1.002
17	219796	32.384205594994	1.002
17	219998	32.404205594994	1.002
17	220008	32.424205594994	1.002
17	220018	32.444205594994	1.002
17	220503	32.464205594994	1.002
17	220698	32.484205594994	1.002
17	220900	32.504205594994	1.002
17	220910	32.524205594994	1.002
17	220920	32.544205594994	1.002
17	221405	32.564205594994	1.002
17	221600	32.584205594994	1.002
17	221802	32.604205594994	1.002
17	221812	32.624205594994	1.002
17	221822	32.644205594994	1.002
17	222302	32.664205594994	1.002
17	222497	32.684205594994	1.002
17	222699	32.704205594994	1.002
17	222709	32.724205594994	1.002
17	222719	32.744205594994	1.002
17	223210	32.764205594994	1.002
17	223405	32.784205594994	1.002
17	223607	32.804205594994	1.002
17	223617	32.824205594994	1.002
17	223627	32.844205594994	1.002
17	224128	32.864205594994	1.002
17	224323	32.884205594994	1.002
17	224525	32.904205594994	1.002
17	224535	32.924205594994	1.002
17	224545	32.944205594994	1.002
17	225030	32.964205594994	1.002
17	225225	32.984205594994	1.002
17	225427	33.004205594994	1.002
17	225437	33.024205594994	1.002
17	225447	33.044205594994	1.002
17	225916	33.064205594994	1.002
17	226111	33.084205594994	1.002
17	226313	33.104205594994	1.002
17	226323	33.124205594994	1.002
17	226333	33.144205594994	1.002
17	226829	33.164205594994	1.002
17	227024	33.184205594994	1.002
17	227226	33.204205594994	1.002
17	227236	33.224205594994	1.002
17	227246	33.244205594994	1.002
17	227747	33.264205594994	1.002
17	227942	33.284205594994	1.002
17	228144	33.304205594994	1.002
17	228154	33.324205594994	1.002
17	228164	33.344205594994	1.002
17	228644	33.364205594994	1.002
17	228839	33.384205594994	1.002
17	229041	33.404205594994	1.002
17	229051	33.424205594994	1.002
17	229061	33.444205594994	1.002
17	229557	33.464205594994	1.002
17	229752	33.484205594994	1.002
17	229954	33.504205594994	1.002
17	229964	33.524205594994	1.002
17	229974	33.544205594994	1.002
17	230491	33.564205594994	1.002
17	230686	33.584205594994	1.002
17	230888	33.604205594994	1.002
17	230898	33.624205594994	1.002
17	230908	33.644205594994	1.002
17	231377	33.664205594994	1.002
17	231572	33.684205594994	1.002
17	231774	33.704205594994	1.002
17	231784	33.724205594994	1.002
17	231794	33.744205594994	1.002
17	232306	33.764205594994	1.002
17	232501	33.784205594994	1.002
17	232703	33.804205594994	1.002
17	232713	33.824205594994	1.002
17	232723	33.844205594994	1.002
17	233208	33.864205594994	1.002
17	233403	33.884205594994	1.002
17	233605	33.904205594994	1.002
17	233615	33.924205594994	1.002
17	233625	33.944205594994	1.002
17	234115	33.964205594994	1.002
17	234310	33.984205594994	1.002
17	234512	34.004205594994	1.002
17	234522	34.024205594994	1.002
17	234532	34.044205594994	1.002
17	235006	34.064205594994	1.002
17	235201	34.084205594994	1.002
17	235403	34.104205594994	1.002
17	235413	34.124205594994	1.002
17	235423	34.144205594994	1.002
17	235914	34.164205594994	1.002
17	236109	34.184205594994	1.002
17	236311	34.204205594994	1.002
17	236321	34.224205594994	1.002
17	236331	34.244205594994	1.002
17	236827	34.264205594994	1.002
17	237022	34.284205594994	1.002
17	237224	34.304205594994	1.002
17	237234	34.324205594994	1.002
17	237244	34.344205594994	1.002
17	237724	34.364205594994	1.002
17	237919	34.384205594994	1.002
17	238121	34.404205594994	1.002
17	238131	34.424205594994	1.002
17	238141	34.444205594994	1.002
17	238626	34.464205594994	1.002
17	238821	34.484205594994	1.002
17	239023	34.504205594994	1.002
17	239033	34.524205594994	1.002
17	239043	34.544205594994	1.002
17	239522	34.564205594994	1.002
17	239717	34.584205594994	1.002
17	239919	34.604205594994	1.002
17	239929	34.624205594994	1.002
17	239939	34.644205594994	1.002
17	240446	34.664205594994	1.002
17	240641	34.684205594994	1.002
17	240843	34.704205594994	1.002
17	240853	34.724205594994	1.002
17	240863	34.744205594994	1.002
17	241359	34.764205594994	1.002
17	241554	34.784205594994	1.002
17	241756	34.804205594994	1.002
17	241766	34.824205594994	1.002
17	241776	34.844205594994	1.002
17	242293	34.864205594994	1.002
17	242488	34.884205594994	1.002
17	242690	34.904205594994	1.002
17	242700	34.924205594994	1.002
17	242710	34.944205594994	1.002
17	243206	34.964205594994	1.002
17	243401	34.984205594994	1.002
17	243603	35.004205594994	1.002
17	243613	35.024205594994	1.002
17	243623	35.044205594994	1.002
17	244119	35.064205594994	1.002
17	244314	35.084205594994	1.002
17	244516	35.104205594994	1.002
17	244526	35.124205594994	1.002
17	244536	35.144205594994	1.002
17	245032	35.164205594994	1.002
17	245227	35.184205594994	1.002
17	245429	35.204205594994	1.002
17	245439	35.224205594994	1.002
17	245449	35.244205594994	1.002
17	245924	35.264205594994	1.002
17	246119	35.284205594994	1.002
17	246321	35.304205594994	1.002
17	246331	35.324205594994	1.002
17	246341	35.344205594994	1.002
17	246842	35.364205594994	1.002
17	247037	35.384205594994	1.002
17	247239	35.404205594994	1.002
17	247249	35.424205594994	1.002
17	247259	35.444205594994	1.002
17	247739	35.464205594994	1.002
17	247934	35.484205594994	1.002
17	248136	35.504205594994	1.002
17	248146	35.524205594994	1.002
17	248156	35.544205594994	1.002
17	248652	35.564205594994	1.002
17	248847	35.584205594994	1.002
17	249049	35.604205594994	1.002
17	249059	35.624205594994	1.002
17	249069	35.644205594994	1.002
17	249581	35.664205594994	1.002
17	249776	35.684205594994	1.002
17	249978	35.704205594994	1.002
17	249988	35.724205594994	1.002
17	249998	35.744205594994	1.002
17	250505	35.764205594994	1.002
17	250700	35.784205594994	1.002
17	250902	35.804205594994	1.002
17	250912	35.824205594994	1.002
17	250922	35.844205594994	1.002
17	251423	35.864205594994	1.002
17	251618	35.884205594994	1.002
17	251820	35.904205594994	1.002
17	251830	35.924205594994	1.002
17	251840	35.944205594994	1.002
17	252319	35.964205594994	1.002
17	252514	35.984205594994	1.002
17	252716	36.004205594994	1.002
17	252726	36.024205594994	1.002
17	252736	36.044205594994	1.002
17	253215	36.064205594994	1.002
17	253410	36.084205594994	1.002
17	253612	36.104205594994	1.002
17	253622	36.124205594994	1.002
17	253632	36.144205594994	1.002
17	254149	36.164205594994	1.002
17	254344	36.184205594994	1.002
17	254546	36.204205594994	1.002
17	254556	36.224205594994	1.002
17	254566	36.244205594994	1.002
17	255062	36.264205594994	1.002
17	255257	36.284205594994	1.002
17	255459	36.304205594994	1.002
17	255469	36.324205594994	1.002
17	255479	36.344205594994	1.002
17	255980	36.364205594994	1.002
17	256175	36.384205594994	1.002
17	256377	36.404205594994	1.002
17	256387	36.424205594994	1.002
17	256397	36.444205594994	1.002
17	256872	36.464205594994	1.002
17	257067	36.484205594994	1.002
17	257269	36.504205594994	1.002
17	257279	36.524205594994	1.002
17	257289	36.544205594994	1.002
17	257774	36.564205594994	1.002
17	257969	36.584205594994	1.002
17	258171	36.604205594994	1.002
17	258181	36.624205594994	1.002
17	258191	36.644205594994	1.002
17	258697	36.664205594994	1.002
17	258892	36.684205594994	1.002
17	259094	36.704205594994	1.002
17	259104	36.724205594994	1.002
17	259114	36.744205594994	1.002
17	259604	36.764205594994	1.002
17	259799	36.784205594994	1.002
17	260001	36.804205594994	1.002
17	260011	36.824205594994	1.002
17	260021	36.844205594994	1.002
17	260517	36.864205594994	1.002
17	260712	36.884205594994	1.002
17	260914	36.904205594994	1.002
17	260924	36.924205594994	1.002
17	260934	36.944205594994	1.002
17	261408	36.964205594994	1.002
17	261603	36.984205594994	1.002
17	261805	37.004205594994	1.002
17	261815	37.024205594994	1.002
17	261825	37.044205594994	1.002
17	262348	37.064205594994	1.002
17	262543	37.084205594994	1.002
17	262745	37.104205594994	1.002
17	262755	37.124205594994	1.002
17	262765	37.144205594994	1.002
17	263250	37.164205594994	1.002
17	263445	37.184205594994	1.002
17	263647	37.204205594994	1.002
17	263657	37.224205594994	1.002
17	263667	37.244205594994	1.002
17	264173	37.264205594994	1.002
17	264368	37.284205594994	1.002
17	264570	37.304205594994	1.002
17	264580	37.324205594994	1.002
17	264590	37.344205594994	1.002
17	265059	37.364205594994	1.002
17	265254	37.384205594994	1.002
17	265456	37.404205594994	1.002
17	265466	37.424205594994	1.002
17	265476	37.444205594994	1.002
17	265977	37.464205594994	1.002
17	266172	37.484205594994	1.002
17	266374	37.504205594994	1.002
17	266384	37.524205594994	1.002
17	266394	37.544205594994	1.002
17	266890	37.564205594994	1.002
17	267085	37.584205594994	1.002
17	267287	37.604205594994	1.002
17	267297	37.624205594994	1.002
17	267307	37.644205594994	1.002
17	267792	37.664205594994	1.002
17	267987	37.684205594994	1.002
17	268189	37.704205594994	1.002
17	268199	37.724205594994	1.002
17	268209	37.744205594994	1.002
17	268737	37.764205594994	1.002
17	268932	37.784205594994	1.002
17	269134	37.804205594994	1.002
17	269144	37.824205594994	1.002
17	269154	37.844205594994	1.002
17	269650	37.864205594994	1.002
17	269845	37.884205594994	1.002
17	270047	37.904205594994	1.002
17	270057	37.924205594994	1.002
17	270067	37.944205594994	1.002
17	270541	37.964205594994	1.002
17	270736	37.984205594994	1.002
17	270938	38.004205594994	1.002
17	270948	38.024205594994	1.002
17	270958	38.044205594994	1.002
17	271454	38.064205594994	1.002
17	271649	38.084205594994	1.002
17	271851	38.104205594994	1.002
17	271861	38.124205594994	1.002
17	271871	38.144205594994	1.002
17	272367	38.164205594994	1.002
17	272562	38.184205594994	1.002
17	272764	38.204205594994	1.002
17	272774	38.224205594994	1.002
17	272784	38.244205594994	1.002
17	273285	38.264205594994	1.002
17	273480	38.284205594994	1.002
17	273682	38.304205594994	1.002
17	273692	38.324205594994	1.002
17	273702	38.344205594994	1.002
17	274176	38.364205594994	1.002
17	274371	38.384205594994	1.002
17	274573	38.404205594994	1.002
17	274583	38.424205594994	1.002
17	274593	38.444205594994	1.002
17	275094	38.464205594994	1.002
17	275289	38.484205594994	1.002
17	275491	38.504205594994	1.002
17	275501	38.524205594994	1.002
17	275511	38.544205594994	1.002
17	276012	38.564205594994	1.002
17	276207	38.584205594994	1.002
17	276409	38.604205594994	1.002
17	276419	38.624205594994	1.002
17	276429	38.644205594994	1.002
17	276919	38.664205594994	1.002
17	277114	38.684205594994	1.002
17	277316	38.704205594994	1.002
17	277326	38.724205594994	1.002
17	277336	38.744205594994	1.002
17	277826	38.764205594994	1.002
17	278021	38.784205594994	1.002
17	278223	38.804205594994	1.002
17	278233	38.824205594994	1.002
17	278243	38.844205594994	1.002
17	278755	38.864205594994	1.002
17	278950	38.884205594994	1.002
17	279152	38.904205594994	1.002
17	279162	38.924205594994	1.002
17	279172	38.944205594994	1.002
17	279668	38.964205594994	1.002
17	279863	38.984205594994	1.002
17	280065	39.004205594994	1.002
17	280075	39.024205594994	1.002
17	280085	39.044205594994	1.002
17	280591	39.064205594994	1.002
17	280786	39.084205594994	1.002
17	280988	39.104205594994	1.002
17	280998	39.124205594994	1.002
17	281008	39.144205594994	1.002
17	281498	39.164205594994	1.002
17	281693	39.184205594994	1.002
17	281895	39.204205594994	1.002
17	281905	39.224205594994	1.002
17	281915	39.244205594994	1.002
17	282389	39.264205594994	1.002
17	282584	39.284205594994	1.002
17	282786	39.304205594994	1.002
17	282796	39.324205594994	1.002
17	282806	39.344205594994	1.002
17	283275	39.364205594994	1.002
17	283470	39.384205594994	1.002
17	283672	39.404205594994	1.002
17	283682	39.424205594994	1.002
17	283692	39.444205594994	1.002
17	284188	39.464205594994	1.002
17	284383	39.484205594994	1.002
17	284585	39.504205594994	1.002
17	284595	39.524205594994	1.002
17	284605	39.544205594994	1.002
17	285074	39.564205594994	1.002
17	285269	39.584205594994	1.002
17	285471	39.604205594994	1.002
17	285481	39.624205594994	1.002
17	285491	39.644205594994	1.002
17	285965	39.664205594994	1.002
17	286160	39.684205594994	1.002
17	286362	39.704205594994	1.002
17	286372	39.724205594994	1.002
17	286382	39.744205594994	1.002
17	286878	39.764205594994	1.002
17	287073	39.784205594994	1.002
17	287275	39.804205594994	1.002
17	287285	39.824205594994	1.002
17	287295	39.844205594994	1.002
17	287775	39.864205594994	1.002
17	287970	39.884205594994	1.002
17	288172	39.904205594994	1.002
17	288182	39.924205594994	1.002
17	288192	39.944205594994	1.002
17	288666	39.964205594994	1.002
17	288861	39.984205594994	1.002
17	289063	40.004205594994	1.002
17	289073	40.024205594994	1.002
17	289083	40.044205594994	1.002
17	289568	40.064205594994	1.002
17	289763	40.084205594994	1.002
17	289965	40.104205594994	1.002
17	289975	40.124205594994	1.002
17	289985	40.144205594994	1.002
17	290486	40.164205594994	1.002
17	290681	40.184205594994	1.002
17	290883	40.204205594994	1.002
17	290893	40.224205594994	1.002
17	290903	40.244205594994	1.002
17	291426	40.264205594994	1.002
17	291621	40.284205594994	1.002
17	291823	40.304205594994	1.002
17	291833	40.324205594994	1.002
17	291843	40.344205594994	1.002
17	292323	40.364205594994	1.002
17	292518	40.384205594994	1.002
17	292720	40.404205594994	1.002
17	292730	40.424205594994	1.002
17	292740	40.444205594994	1.002
17	293209	40.464205594994	1.002
17	293404	40.484205594994	1.002
17	293606	40.504205594994	1.002
17	293616	40.524205594994	1.002
17	293626	40.544205594994	1.002
17	294122	40.564205594994	1.002
17	294317	40.584205594994	1.002
17	294519	40.604205594994	1.002
17	294529	40.624205594994	1.002
17	294539	40.644205594994	1.002
17	295051	40.664205594994	1.002
17	295246	40.684205594994	1.002
17	295448	40.704205594994	1.002
17	295458	40.724205594994	1.002
17	295468	40.744205594994	1.002
17	295958	40.764205594994	1.002
17	296153	40.784205594994	1.002
17	296355	40.804205594994	1.002
17	296365	40.824205594994	1.002
17	296375	40.844205594994	1.002
17	296876	40.864205594994	1.002
17	297071	40.884205594994	1.002
17	297273	40.904205594994	1.002
17	297283	40.924205594994	1.002
17	297293	40.944205594994	1.002
17	297789	40.964205594994	1.002
17	297984	40.984205594994	1.002
17	298186	41.004205594994	1.002
17	298196	41.024205594994	1.002
17	298206	41.044205594994	1.002
17	298707	41.064205594994	1.002
17	298902	41.084205594994	1.002
17	299104	41.104205594994	1.002
17	299114	41.124205594994	1.002
17	299124	41.144205594994	1.002
17	299631	41.164205594994	1.002
17	299826	41.184205594994	1.002
17	300028	41.204205594994	1.002
17	300038	41.224205594994	1.002
17	300048	41.244205594994	1.002
17	300549	41.264205594994	1.002
17	300744	41.284205594994	1.002
17	300946	41.304205594994	1.002
17	300956	41.324205594994	1.002
17	300966	41.344205594994	1.002
17	301467	41.364205594994	1.002
17	301662	41.384205594994	1.002
17	301864	41.404205594994	1.002
17	301874	41.424205594994	1.002
17	301884	41.444205594994	1.002
17	302364	41.464205594994	1.002
17	302559	41.484205594994	1.002
17	302761	41.504205594994	1.002
17	302771	41.524205594994	1.002
17	302781	41.544205594994	1.002
17	303266	41.564205594994	1.002
17	303461	41.584205594994	1.002
17	303663	41.604205594994	1.002
17	303673	41.624205594994	1.002
17	303683	41.644205594994	1.002
17	304157	41.664205594994	1.002
17	304352	41.684205594994	1.002
17	304554	41.704205594994	1.002
17	304564	41.724205594994	1.002
17	304574	41.744205594994	1.002
17	305113	41.764205594994	1.002
17	305308	41.784205594994	1.002
17	305510	41.804205594994	1.002
17	305520	41.824205594994	1.002
17	305530	41.844205594994	1.002
17	306031	41.864205594994	1.002
17	306226	41.884205594994	1.002
17	306428	41.904205594994	1.002
17	306438	41.924205594994	1.002
17	306448	41.944205594994	1.002
17	306944	41.964205594994	1.002
17	307139	41.984205594994	1.002
17	307341	42.004205594994	1.002
17	307351	42.024205594994	1.002
17	307361	42.044205594994	1.002
17	307878	42.064205594994	1.002
17	308073	42.084205594994	1.002
17	308275	42.104205594994	1.002
17	308285	42.124205594994	1.002
17	308295	42.144205594994	1.002
17	308769	42.164205594994	1.002
17	308964	42.184205594994	1.002
17	309166	42.204205594994	1.002
17	309176	42.224205594994	1.002
17	309186	42.244205594994	1.002
17	309671	42.264205594994	1.002
17	309866	42.284205594994	1.002
17	310068	42.304205594994	1.002
17	310078	42.324205594994	1.002
17	310088	42.344205594994	1.002
17	310562	42.364205594994	1.002
17	310757	42.384205594994	1.002
17	310959	42.404205594994	1.002
17	310969	42.424205594994	1.002
17	310979	42.444205594994	1.002
17	311480	42.464205594994	1.002
17	311675	42.484205594994	1.002
17	311877	42.504205594994	1.002
17	311887	42.524205594994	1.002
17	311897	42.544205594994	1.002
17	312387	42.564205594994	1.002
17	312582	42.584205594994	1.002
17	312784	42.604205594994	1.002
17	312794	42.624205594994	1.002
17	312804	42.644205594994	1.002
17	313272	42.664205594994	1.002
17	313467	42.684205594994	1.002
17	313669	42.704205594994	1.002
17	313679	42.724205594994	1.002
17	313689	42.744205594994	1.002
17	314157	42.764205594994	1.002
17	314352	42.784205594994	1.002
17	314554	42.804205594994	1.002
17	314564	42.824205594994	1.002
17	314574	42.844205594994	1.002
17	315064	42.864205594994	1.002
17	315259	42.884205594994	1.002
17	315461	42.904205594994	1.002
17	315471	42.924205594994	1.002
17	315481	42.944205594994	1.002
17	315966	42.964205594994	1.002
17	316161	42.984205594994	1.002
17	316363	43.004205594994	1.002
17	316373	43.024205594994	1.002
17	316383	43.044205594994	1.002
17	316884	43.064205594994	1.002
17	317079	43.084205594994	1.002
17	317281	43.104205594994	1.002
17	317291	43.124205594994	1.002
17	317301	43.144205594994	1.002
17	317797	43.164205594994	1.002
17	317992	43.184205594994	1.002
17	318194	43.204205594994	1.002
17	318204	43.224205594994	1.002
17	318214	43.244205594994	1.002
17	318689	43.264205594994	1.002
17	318884	43.284205594994	1.002
17	319086	43.304205594994	1.002
17	319096	43.324205594994	1.002
17	319106	43.344205594994	1.002
17	319591	43.364205594994	1.002
17	319786	43.384205594994	1.002
17	319988	43.404205594994	1.002
17	319998	43.424205594994	1.002
17	320008	43.444205594994	1.002
17	320520	43.464205594994	1.002
17	320715	43.484205594994	1.002
17	320917	43.504205594994	1.002
17	320927	43.524205594994	1.002
17	320937	43.544205594994	1.002
17	321433	43.564205594994	1.002
17	321628	43.584205594994	1.002
17	321830	43.604205594994	1.002
17	321840	43.624205594994	1.002
17	321850	43.644205594994	1.002
17	322357	43.664205594994	1.002
17	322552	43.684205594994	1.002
17	322754	43.704205594994	1.002
17	322764	43.724205594994	1.002
17	322774	43.744205594994	1.002
17	323259	43.764205594994	1.002
17	323454	43.784205594994	1.002
17	323656	43.804205594994	1.002
17	323666	43.824205594994	1.002
17	323676	43.844205594994	1.002
17	324172	43.864205594994	1.002
17	324367	43.884205594994	1.002
17	324569	43.904205594994	1.002
17	324579	43.924205594994	1.002
17	324589	43.944205594994	1.002
17	325090	43.964205594994	1.002
17	325285	43.984205594994	1.002
17	325487	44.004205594994	1.002
17	325497	44.024205594994	1.002
17	325507	44.044205594994	1.002
17	326019	44.064205594994	1.002
17	326214	44.084205594994	1.002
17	326416	44.104205594994	1.002
17	326426	44.124205594994	1.002
17	326436	44.144205594994	1.002
17	326943	44.164205594994	1.002
17	327138	44.184205594994	1.002
17	327340	44.204205594994	1.002
17	327350	44.224205594994	1.002
17	327360	44.244205594994	1.002
17	327856	44.264205594994	1.002
17	328051	44.284205594994	1.002
17	328253	44.304205594994	1.002
17	328263	44.324205594994	1.002
17	328273	44.344205594994	1.002
17	328769	44.364205594994	1.002
17	328964	44.384205594994	1.002
17	329166	44.404205594994	1.002
17	329176	44.424205594994	1.002
17	329186	44.444205594994	1.002
17	329682	44.464205594994	1.002
17	329877	44.484205594994	1.002
17	330079	44.504205594994	1.002
17	330089	44.524205594994	1.002
17	330099	44.544205594994	1.002
17	330584	44.564205594994	1.002
17	330779	44.584205594994	1.002
17	330981	44.604205594994	1.002
17	330991	44.624205594994	1.002
17	331001	44.644205594994	1.002
17	331502	44.664205594994	1.002
17	331697	44.684205594994	1.002
17	331899	44.704205594994	1.002
17	331909	44.724205594994	1.002
17	331919	44.744205594994	1.002
17	332388	44.764205594994	1.002
17	332583	44.784205594994	1.002
17	332785	44.804205594994	1.002
17	332795	44.824205594994	1.002
17	332805	44.844205594994	1.002
17	333312	44.864205594994	1.002
17	333507	44.884205594994	1.002
17	333709	44.904205594994	1.002
17	333719	44.924205594994	1.002
17	333729	44.944205594994	1.002
17	334203	44.964205594994	1.002
17	334398	44.984205594994	1.002
17	334600	45.004205594994	1.002
17	334610	45.024205594994	1.002
17	334620	45.044205594994	1.002
17	335116	45.064205594994	1.002
17	335311	45.084205594994	1.002
17	335513	45.104205594994	1.002
17	335523	45.124205594994	1.002
17	335533	45.144205594994	1.002
17	336023	45.164205594994	1.002
17	336218	45.184205594994	1.002
17	336420	45.204205594994	1.002
17	336430	45.224205594994	1.002
17	336440	45.244205594994	1.002
17	336925	45.264205594994	1.002
17	337120	45.284205594994	1.002
17	337322	45.304205594994	1.002
17	337332	45.324205594994	1.002
17	337342	45.344205594994	1.002
17	337827	45.364205594994	1.002
17	338022	45.384205594994	1.002
17	338224	45.404205594994	1.002
17	338234	45.424205594994	1.002
17	338244	45.444205594994	1.002
17	338740	45.464205594994	1.002
17	338935	45.484205594994	1.002
17	339137	45.504205594994	1.002
17	339147	45.524205594994	1.002
17	339157	45.544205594994	1.002
17	339642	45.564205594994	1.002
17	339837	45.584205594994	1.002
17	340039	45.604205594994	1.002
17	340049	45.624205594994	1.002
17	340059	45.644205594994	1.002
17	340549	45.664205594994	1.002
17	340744	45.684205594994	1.002
17	340946	45.704205594994	1.002
17	340956	45.724205594994	1.002
17	340966	45.744205594994	1.002
17	341462	45.764205594994	1.002
17	341657	45.784205594994	1.002
17	341859	45.804205594994	1.002
17	341869	45.824205594994	1.002
17	341879	45.844205594994	1.002
17	342375	45.864205594994	1.002
17	342570	45.884205594994	1.002
17	342772	45.904205594994	1.002
17	342782	45.924205594994	1.002
17	342792	45.944205594994	1.002
17	343288	45.964205594994	1.002
17	343483	45.984205594994	1.002
17	343685	46.004205594994	1.002
17	343695	46.024205594994	1.002
17	343705	46.044205594994	1.002
17	344185	46.064205594994	1.002
17	344380	46.084205594994	1.002
17	344582	46.104205594994	1.002
17	344592	46.124205594994	1.002
17	344602	46.144205594994	1.002
17	345098	46.164205594994	1.002
17	345293	46.184205594994	1.002
17	345495	46.204205594994	1.002
17	345505	46.224205594994	1.002
17	345515	46.244205594994	1.002
17	346011	46.264205594994	1.002
17	346206	46.284205594994	1.002
17	346408	46.304205594994	1.002
17	346418	46.324205594994	1.002
17	346428	46.344205594994	1.002
17	346913	46.364205594994	1.002
17	347108	46.384205594994	1.002
17	347310	46.404205594994	1.002
17	347320	46.424205594994	1.002
17	347330	46.444205594994	1.002
17	347804	46.464205594994	1.002
17	347999	46.484205594994	1.002
17	348201	46.504205594994	1.002
17	348211	46.524205594994	1.002
17	348221	46.544205594994	1.002
17	348712	46.564205594994	1.002
17	348907	46.584205594994	1.002
17	349109	46.604205594994	1.002
17	349119	46.624205594994	1.002
17	349129	46.644205594994	1.002
17	349609	46.664205594994	1.002
17	349804	46.684205594994	1.002
17	350006	46.704205594994	1.002
17	350016	46.724205594994	1.002
17	350026	46.744205594994	1.002
17	350506	46.764205594994	1.002
17	350701	46.784205594994	1.002
17	350903	46.804205594994	1.002
17	350913	46.824205594994	1.002
17	350923	46.844205594994	1.002
17	351430	46.864205594994	1.002
17	351625	46.884205594994	1.002
17	351827	46.904205594994	1.002
17	351837	46.924205594994	1.002
17	351847	46.944205594994	1.002
17	352343	46.964205594994	1.002
17	352538	46.984205594994	1.002
17	352740	47.004205594994	1.002
17	352750	47.024205594994	1.002
17	352760	47.044205594994	1.002
17	353272	47.064205594994	1.002
17	353467	47.084205594994	1.002
17	353669	47.104205594994	1.002
17	353679	47.124205594994	1.002
17	353689	47.144205594994	1.002
17	354201	47.164205594994	1.002
17	354396	47.184205594994	1.002
17	354598	47.204205594994	1.002
17	354608	47.224205594994	1.002
17	354618	47.244205594994	1.002
17	355087	47.264205594994	1.002
17	355282	47.284205594994	1.002
17	355484	47.304205594994	1.002
17	355494	47.324205594994	1.002
17	355504	47.344205594994	1.002
17	355978	47.364205594994	1.002
17	356173	47.384205594994	1.002
17	356375	47.404205594994	1.002
17	356385	47.424205594994	1.002
17	356395	47.444205594994	1.002
17	356880	47.464205594994	1.002
17	357075	47.484205594994	1.002
17	357277	47.504205594994	1.002
17	357287	47.524205594994	1.002
17	357297	47.544205594994	1.002
17	357777	47.564205594994	1.002
17	357972	47.584205594994	1.002
17	358174	47.604205594994	1.002
17	358184	47.624205594994	1.002
17	358194	47.644205594994	1.002
17	358684	47.664205594994	1.002
17	358879	47.684205594994	1.002
17	359081	47.704205594994	1.002
17	359091	47.724205594994	1.002
17	359101	47.744205594994	1.002
[...]
14	332782	44.800249398352	0.002
14	332814	44.850249398352	0.001
14	333706	44.900249398352	0.002
14	333738	44.950249398352	0.001
14	334597	45.000249398352	0.002
14	334629	45.050249398352	0.001
14	335510	45.100249398352	0.002
14	335542	45.150249398352	0.001
14	336417	45.200249398352	0.002
14	336449	45.250249398352	0.001
14	337319	45.300249398352	0.002
14	337351	45.350249398352	0.001
14	338221	45.400249398352	0.002
14	338253	45.450249398352	0.001
14	339134	45.500249398352	0.002
14	339166	45.550249398352	0.001
14	340036	45.600249398352	0.002
14	340068	45.650249398352	0.001
14	340943	45.700249398352	0.002
14	340975	45.750249398352	0.001
14	341856	45.800249398352	0.002
14	341888	45.850249398352	0.001
14	342769	45.900249398352	0.002
14	342801	45.950249398352	0.001
14	343682	46.000249398352	0.002
14	343714	46.050249398352	0.001
14	344579	46.100249398352	0.002
14	344611	46.150249398352	0.001
14	345492	46.200249398352	0.002
14	345524	46.250249398352	0.001
14	346405	46.300249398352	0.002
14	346437	46.350249398352	0.001
14	347307	46.400249398352	0.002
14	347339	46.450249398352	0.001
14	348198	46.500249398352	0.002
14	348230	46.550249398352	0.001
14	349106	46.600249398352	0.002
14	349138	46.650249398352	0.001
14	350003	46.700249398352	0.002
14	350035	46.750249398352	0.001
14	350900	46.800249398352	0.002
14	350932	46.850249398352	0.001
14	351824	46.900249398352	0.002
14	351856	46.950249398352	0.001
14	352737	47.000249398352	0.002
14	352769	47.050249398352	0.001
14	353666	47.100249398352	0.002
14	353698	47.150249398352	0.001
14	354595	47.200249398352	0.002
14	354627	47.250249398352	0.001
14	355481	47.300249398352	0.002
14	355513	47.350249398352	0.001
14	356372	47.400249398352	0.002
14	356404	47.450249398352	0.001
14	357274	47.500249398352	0.002
14	357306	47.550249398352	0.001
14	358171	47.600249398352	0.002
14	358203	47.650249398352	0.001
14	359078	47.700249398352	0.002
14	359110	47.750249398352	0.001
14	359996	47.800249398352	0.002
14	360028	47.850249398352	0.001
14	360904	47.900249398352	0.002
14	360936	47.950249398352	0.001
14	361817	48.000249398352	0.002
14	361849	48.050249398352	0.001
14	362719	48.100249398352	0.002
14	362751	48.150249398352	0.001
14	363637	48.200249398352	0.002
14	363669	48.250249398352	0.001
14	364561	48.300249398352	0.002
14	364593	48.350249398352	0.001
14	365479	48.400249398352	0.002
14	365511	48.450249398352	0.001
14	366397	48.500249398352	0.002
14	366429	48.550249398352	0.001
14	367321	48.600249398352	0.002
14	367353	48.650249398352	0.001
14	368234	48.700249398352	0.002
14	368266	48.750249398352	0.001
14	369141	48.800249398352	0.002
14	369173	48.850249398352	0.001
14	370043	48.900249398352	0.002
14	370075	48.950249398352	0.001
14	370950	49.000249398352	0.002
14	370982	49.050249398352	0.001
14	371847	49.100249398352	0.002
14	371879	49.150249398352	0.001
14	372776	49.200249398352	0.002
14	372808	49.250249398352	0.001
14	373705	49.300249398352	0.002
14	373737	49.350249398352	0.001
14	374607	49.400249398352	0.002
14	374639	49.450249398352	0.001
14	375520	49.500249398352	0.002
14	375552	49.550249398352	0.001
14	376438	49.600249398352	0.002
14	376470	49.650249398352	0.001
14	377324	49.700249398352	0.002
14	377356	49.750249398352	0.001
14	378248	49.800249398352	0.002
14	378280	49.850249398352	0.001
14	379161	49.900249398352	0.002
14	379193	49.950249398352	0.001
14	380063	50.000249398352	0.002
14	380095	50.050249398352	0.001
14	380981	50.100249398352	0.002
14	381013	50.150249398352	0.001
14	381894	50.200249398352	0.002
14	381926	50.250249398352	0.001
14	382802	50.300249398352	0.002
14	382834	50.350249398352	0.001
14	383725	50.400249398352	0.002
14	383757	50.450249398352	0.001
14	384638	50.500249398352	0.002
14	384670	50.550249398352	0.001
14	385567	50.600249398352	0.002
14	385599	50.650249398352	0.001
14	386523	50.700249398352	0.002
14	386555	50.750249398352	0.001
14	387415	50.800249398352	0.002
14	387447	50.850249398352	0.001
14	388307	50.900249398352	0.002
14	388339	50.950249398352	0.001
14	389203	51.000249398352	0.002
14	389235	51.050249398352	0.001
14	390100	51.100249398352	0.002
14	390132	51.150249398352	0.001
14	391013	51.200249398352	0.002
14	391045	51.250249398352	0.001
14	391926	51.300249398352	0.002
14	391958	51.350249398352	0.001
14	392849	51.400249398352	0.002
14	392881	51.450249398352	0.001
14	393746	51.500249398352	0.002
14	393778	51.550249398352	0.001
14	394664	51.600249398352	0.002
14	394696	51.650249398352	0.001
14	395561	51.700249398352	0.002
14	395593	51.750249398352	0.001
14	396479	51.800249398352	0.002
14	396511	51.850249398352	0.001
14	397387	51.900249398352	0.002
14	397419	51.950249398352	0.001
14	398300	52.000249398352	0.002
14	398332	52.050249398352	0.001
14	399181	52.100249398352	0.002
14	399213	52.150249398352	0.001
14	400077	52.200249398352	0.002
14	400109	52.250249398352	0.001
14	400963	52.300249398352	0.002
14	400995	52.350249398352	0.001
14	401870	52.400249398352	0.002
14	401902	52.450249398352	0.001
14	402788	52.500249398352	0.002
14	402820	52.550249398352	0.001
14	403690	52.600249398352	0.002
14	403722	52.650249398352	0.001
14	404592	52.700249398352	0.002
14	404624	52.750249398352	0.001
14	405505	52.800249398352	0.002
14	405537	52.850249398352	0.001
14	406434	52.900249398352	0.002
14	406466	52.950249398352	0.001
14	407358	53.000249398352	0.002
14	407390	53.050249398352	0.001
14	408266	53.100249398352	0.002
14	408298	53.150249398352	0.001
14	409157	53.200249398352	0.002
14	409189	53.250249398352	0.001
14	410075	53.300249398352	0.002
14	410107	53.350249398352	0.001
14	410993	53.400249398352	0.002
14	411025	53.450249398352	0.001
14	411895	53.500249398352	0.002
14	411927	53.550249398352	0.001
14	412808	53.600249398352	0.002
14	412840	53.650249398352	0.001
14	413721	53.700249398352	0.002
14	413753	53.750249398352	0.001
14	414623	53.800249398352	0.002
14	414655	53.850249398352	0.001
14	415536	53.900249398352	0.002
14	415568	53.950249398352	0.001
14	416476	54.000249398352	0.002
14	416508	54.050249398352	0.001
14	417378	54.100249398352	0.002
14	417410	54.150249398352	0.001
14	418291	54.200249398352	0.002
14	418323	54.250249398352	0.001
14	419209	54.300249398352	0.002
14	419241	54.350249398352	0.001
14	420127	54.400249398352	0.002
14	420159	54.450249398352	0.001
14	421045	54.500249398352	0.002
14	421077	54.550249398352	0.001
14	421969	54.600249398352	0.002
14	422001	54.650249398352	0.001
14	422877	54.700249398352	0.002
14	422909	54.750249398352	0.001
14	423790	54.800249398352	0.002
14	423822	54.850249398352	0.001
14	424703	54.900249398352	0.002
14	424735	54.950249398352	0.001
14	425610	55.000249398352	0.002
14	425642	55.050249398352	0.001
14	426539	55.100249398352	0.002
14	426571	55.150249398352	0.001
14	427447	55.200249398352	0.002
14	427479	55.250249398352	0.001
14	428360	55.300249398352	0.002
14	428392	55.350249398352	0.001
14	429268	55.400249398352	0.002
14	429300	55.450249398352	0.001
14	430192	55.500249398352	0.002
14	430224	55.550249398352	0.001
14	431105	55.600249398352	0.002
14	431137	55.650249398352	0.001
14	432034	55.700249398352	0.002
14	432066	55.750249398352	0.001
14	432941	55.800249398352	0.002
14	432973	55.850249398352	0.001
14	433854	55.900249398352	0.002
14	433886	55.950249398352	0.001
14	434767	56.000249398352	0.002
14	434799	56.050249398352	0.001
14	435679	56.100249398352	0.002
14	435711	56.150249398352	0.001
14	436592	56.200249398352	0.002
14	436624	56.250249398352	0.001
14	437505	56.300249398352	0.002
14	437537	56.350249398352	0.001
14	438396	56.400249398352	0.002
14	438428	56.450249398352	0.001
14	439330	56.500249398352	0.002
14	439362	56.550249398352	0.001
14	440226	56.600249398352	0.002
14	440258	56.650249398352	0.001
14	441160	56.700249398352	0.002
14	441192	56.750249398352	0.001
14	442078	56.800249398352	0.002
14	442110	56.850249398352	0.001
14	442980	56.900249398352	0.002
14	443012	56.950249398352	0.001
14	443882	57.000249398352	0.002
14	443914	57.050249398352	0.001
14	444784	57.100249398352	0.002
14	444816	57.150249398352	0.001
14	445713	57.200249398352	0.002
14	445745	57.250249398352	0.001
14	446615	57.300249398352	0.002
14	446647	57.350249398352	0.001
14	447544	57.400249398352	0.002
14	447576	57.450249398352	0.001
14	448457	57.500249398352	0.002
14	448489	57.550249398352	0.001
14	449380	57.600249398352	0.002
14	449412	57.650249398352	0.001
14	450304	57.700249398352	0.002
14	450336	57.750249398352	0.001
14	451217	57.800249398352	0.002
14	451249	57.850249398352	0.001
14	452119	57.900249398352	0.002
14	452151	57.950249398352	0.001
14	453027	58.000249398352	0.002
14	453059	58.050249398352	0.001
14	453956	58.100249398352	0.002
14	453988	58.150249398352	0.001
14	454874	58.200249398352	0.002
14	454906	58.250249398352	0.001
14	455776	58.300249398352	0.002
14	455808	58.350249398352	0.001
14	456705	58.400249398352	0.002
14	456737	58.450249398352	0.001
14	457623	58.500249398352	0.002
14	457655	58.550249398352	0.001
14	458552	58.600249398352	0.002
14	458584	58.650249398352	0.001
14	459465	58.700249398352	0.002
14	459497	58.750249398352	0.001
14	460373	58.800249398352	0.002
14	460405	58.850249398352	0.001
14	461275	58.900249398352	0.002
14	461307	58.950249398352	0.001
14	462188	59.000249398352	0.002
14	462220	59.050249398352	0.001
14	463095	59.100249398352	0.002
14	463127	59.150249398352	0.001
14	464003	59.200249398352	0.002
14	464035	59.250249398352	0.001
14	464911	59.300249398352	0.002
14	464943	59.350249398352	0.001
14	465824	59.400249398352	0.002
14	465856	59.450249398352	0.001
14	466732	59.500249398352	0.002
14	466764	59.550249398352	0.001
14	467634	59.600249398352	0.002
14	467666	59.650249398352	0.001
14	468525	59.700249398352	0.002
14	468557	59.750249398352	0.001
14	469427	59.800249398352	0.002
14	469459	59.850249398352	0.001
14	470340	59.900249398352	0.002
14	470372	59.950249398352	0.001
14	471269	60.000249398352	0.002
14	471301	60.050249398352	0.001
14	472166	60.100249398352	0.002
14	472198	60.150249398352	0.001
14	473063	60.200249398352	0.002
14	473095	60.250249398352	0.001
14	473976	60.300249398352	0.002
14	474008	60.350249398352	0.001
14	474883	60.400249398352	0.002
14	474915	60.450249398352	0.001
14	475774	60.500249398352	0.002
14	475806	60.550249398352	0.001
14	476681	60.600249398352	0.002
14	476713	60.650249398352	0.001
14	477588	60.700249398352	0.002
14	477620	60.750249398352	0.001
14	478495	60.800249398352	0.002
14	478527	60.850249398352	0.001
14	479419	60.900249398352	0.002
14	479451	60.950249398352	0.001
14	480332	61.000249398352	0.002
14	480364	61.050249398352	0.001
14	481234	61.100249398352	0.002
14	481266	61.150249398352	0.001
14	482152	61.200249398352	0.002
14	482184	61.250249398352	0.001
14	483043	61.300249398352	0.002
14	483075	61.350249398352	0.001
14	483940	61.400249398352	0.002
14	483972	61.450249398352	0.001
14	484853	61.500249398352	0.002
14	484885	61.550249398352	0.001
14	485770	61.600249398352	0.002
14	485795	61.650249398352	0.001
14	486402	61.700249398352	0.002
14	486427	61.750249398352	0.001
14	487025	61.800249398352	0.002
14	487050	61.850249398352	0.001
14	487639	61.900249398352	0.002
14	487664	61.950249398352	0.001
14	488271	62.000249398352	0.002
14	488296	62.050249398352	0.001
14	488894	62.100249398352	0.002
14	488919	62.150249398352	0.001
14	489526	62.200249398352	0.002
14	489551	62.250249398352	0.001
14	490149	62.300249398352	0.002
14	490174	62.350249398352	0.001
14	490781	62.400249398352	0.002
14	490806	62.450249398352	0.001
14	491404	62.500249398352	0.002
14	491429	62.550249398352	0.001
14	492023	62.600249398352	0.002
14	492048	62.650249398352	0.001
14	492659	62.700249398352	0.002
14	492684	62.750249398352	0.001
14	493304	62.800249398352	0.002
14	493329	62.850249398352	0.001
14	493923	62.900249398352	0.002
14	493948	62.950249398352	0.001
14	494559	63.000249398352	0.002
14	494584	63.050249398352	0.001
14	495182	63.100249398352	0.002
14	495207	63.150249398352	0.001
14	495818	63.200249398352	0.002
14	495843	63.250249398352	0.001
14	496467	63.300249398352	0.002
14	496492	63.350249398352	0.001
14	497112	63.400249398352	0.002
14	497137	63.450249398352	0.001
14	497757	63.500249398352	0.002
14	497782	63.550249398352	0.001
14	498402	63.600249398352	0.002
14	498427	63.650249398352	0.001
14	499047	63.700249398352	0.002
14	499072	63.750249398352	0.001
14	499670	63.800249398352	0.002
14	499695	63.850249398352	0.001
14	500306	63.900249398352	0.002
14	500331	63.950249398352	0.001
14	500929	64.000249398352	0.002
14	500954	64.050249398352	0.001
14	501547	64.100249398352	0.002
14	501572	64.150249398352	0.001
14	502170	64.200249398352	0.002
14	502195	64.250249398352	0.001
14	502815	64.300249398352	0.002
14	502840	64.350249398352	0.001
14	503425	64.400249398352	0.002
14	503450	64.450249398352	0.001
14	504048	64.500249398352	0.002
14	504073	64.550249398352	0.001
14	504667	64.600249398352	0.002
14	504692	64.650249398352	0.001
14	505299	64.700249398352	0.002
14	505324	64.750249398352	0.001
14	505917	64.800249398352	0.002
14	505937	64.850249398352	0.001
14	506321	64.900249398352	0.002
14	506341	64.950249398352	0.001
14	506705	65.000249398352	0.002
14	506725	65.050249398352	0.001
14	507099	65.100249398352	0.002
14	507119	65.150249398352	0.001
14	507493	65.200249398352	0.002
14	507513	65.250249398352	0.001
14	507887	65.300249398352	0.002
14	507907	65.350249398352	0.001
14	508274	65.400249398352	0.002
14	508294	65.450249398352	0.001
14	508678	65.500249398352	0.002
14	508698	65.550249398352	0.001
14	509072	65.600249398352	0.002
14	509092	65.650249398352	0.001
14	509466	65.700249398352	0.002
14	509486	65.750249398352	0.001
14	509850	65.800249398352	0.002
14	509870	65.850249398352	0.001
14	510247	65.900249398352	0.002
14	510267	65.950249398352	0.001
14	510641	66.000249398352	0.002
14	510661	66.050249398352	0.001
14	511035	66.100249398352	0.002
14	511055	66.150249398352	0.001
14	511429	66.200249398352	0.002
14	511449	66.250249398352	0.001
14	511823	66.300249398352	0.002
14	511843	66.350249398352	0.001
14	512207	66.400249398352	0.002
14	512227	66.450249398352	0.001
14	512621	66.500249398352	0.002
14	512641	66.550249398352	0.001
14	513015	66.600249398352	0.002
14	513035	66.650249398352	0.001
14	513409	66.700249398352	0.002
14	513429	66.750249398352	0.001
14	513803	66.800249398352	0.002
14	513823	66.850249398352	0.001
14	514207	66.900249398352	0.002
14	514227	66.950249398352	0.001
14	514601	67.000249398352	0.002
14	514621	67.050249398352	0.001
14	514985	67.100249398352	0.002
14	515005	67.150249398352	0.001
14	515369	67.200249398352	0.002
14	515389	67.250249398352	0.001
14	515763	67.300249398352	0.002
14	515783	67.350249398352	0.001
14	516160	67.400249398352	0.002
14	516180	67.450249398352	0.001
14	516574	67.500249398352	0.002
14	516594	67.550249398352	0.001
14	516967	67.600249398352	0.002
14	516980	67.650249398352	0.001
14	517184	67.700249398352	0.002
14	517197	67.750249398352	0.001
14	517401	67.800249398352	0.002
14	517414	67.850249398352	0.001
14	517618	67.900249398352	0.002
14	517631	67.950249398352	0.001
14	517835	68.000249398352	0.002
14	517848	68.050249398352	0.001
14	518052	68.100249398352	0.002
14	518065	68.150249398352	0.001
14	518262	68.200249398352	0.002
14	518275	68.250249398352	0.001
14	518479	68.300249398352	0.002
14	518492	68.350249398352	0.001
14	518689	68.400249398352	0.002
14	518702	68.450249398352	0.001
14	518899	68.500249398352	0.002
14	518912	68.550249398352	0.001
14	519116	68.600249398352	0.002
14	519129	68.650249398352	0.001
14	519333	68.700249398352	0.002
14	519346	68.750249398352	0.001
14	519550	68.800249398352	0.002
14	519563	68.850249398352	0.001
14	519767	68.900249398352	0.002
14	519780	68.950249398352	0.001
14	519977	69.000249398352	0.002
14	519990	69.050249398352	0.001
14	520194	69.100249398352	0.002
14	520207	69.150249398352	0.001
14	520411	69.200249398352	0.002
14	520424	69.250249398352	0.001
14	520621	69.300249398352	0.002
14	520634	69.350249398352	0.001
14	520838	69.400249398352	0.002
14	520851	69.450249398352	0.001
14	521055	69.500249398352	0.002
14	521068	69.550249398352	0.001
14	521265	69.600249398352	0.002
14	521278	69.650249398352	0.001
14	521482	69.700249398352	0.002
14	521495	69.750249398352	0.001
14	521699	69.800249398352	0.002
14	521712	69.850249398352	0.001
14	521909	69.900249398352	0.002
14	521922	69.950249398352	0.001
14	522119	70.000249398352	0.002
14	522132	70.050249398352	0.001
14	522336	70.100249398352	0.002
14	522349	70.150249398352	0.001
14	522553	70.200249398352	0.002
14	522566	70.250249398352	0.001
14	522770	70.300249398352	0.002
14	522783	70.350249398352	0.001
14	522980	70.400249398352	0.002
14	522993	70.450249398352	0.001
14	523197	70.500249398352	0.002
14	523210	70.550249398352	0.001
14	523414	70.600249398352	0.002
14	523427	70.650249398352	0.001
14	523631	70.700249398352	0.002
14	523644	70.750249398352	0.001
14	523840	70.800249398352	0.002
14	523847	70.850249398352	0.001
14	523920	70.900249398352	0.002
14	523927	70.950249398352	0.001
14	524000	71.000249398352	0.002
14	524007	71.050249398352	0.001
14	524080	71.100249398352	0.002
14	524087	71.150249398352	0.001
14	524160	71.200249398352	0.002
14	524167	71.250249398352	0.001
14	524240	71.300249398352	0.002
14	524247	71.350249398352	0.001
14	524320	71.400249398352	0.002
14	524327	71.450249398352	0.001
14	524400	71.500249398352	0.002
14	524407	71.550249398352	0.001
14	524480	71.600249398352	0.002
14	524487	71.650249398352	0.001
14	524560	71.700249398352	0.002
14	524567	71.750249398352	0.001
14	524640	71.800249398352	0.002
14	524647	71.850249398352	0.001
14	524720	71.900249398352	0.002
14	524727	71.950249398352	0.001
14	524800	72.000249398352	0.002
14	524807	72.050249398352	0.001
14	524880	72.100249398352	0.002
14	524887	72.150249398352	0.001
14	524960	72.200249398352	0.002
14	524967	72.250249398352	0.001
14	525040	72.300249398352	0.002
14	525047	72.350249398352	0.001
14	525120	72.400249398352	0.002
14	525127	72.450249398352	0.001
14	525200	72.500249398352	0.002
14	525207	72.550249398352	0.001
14	525280	72.600249398352	0.002
14	525287	72.650249398352	0.001
14	525360	72.700249398352	0.002
14	525367	72.750249398352	0.001
14	525440	72.800249398352	0.002
14	525447	72.850249398352	0.001
14	525520	72.900249398352	0.002
14	525527	72.950249398352	0.001
14	525600	73.000249398352	0.002
14	525607	73.050249398352	0.001
14	525680	73.100249398352	0.002
14	525687	73.150249398352	0.001
14	525760	73.200249398352	0.002
14	525767	73.250249398352	0.001
14	525840	73.300249398352	0.002
14	525847	73.350249398352	0.001
14	525920	73.400249398352	0.002
14	525927	73.450249398352	0.001
14	526000	73.500249398352	0.002
14	526007	73.550249398352	0.001
14	526080	73.600249398352	0.002
14	526081	73.650249398352	0.001
14	526082	73.700249398352	0.002
14	526083	73.750249398352	0.001
14	526084	73.800249398352	0.002
14	526085	73.850249398352	0.001
14	526086	73.900249398352	0.002
14	526087	73.950249398352	0.001
14	526088	74.000249398352	0.002
14	526089	74.050249398352	0.001
14	526090	74.100249398352	0.002
14	526091	74.150249398352	0.001
14	526092	74.200249398352	0.002
14	526093	74.250249398352	0.001
14	526094	74.300249398352	0.002
14	526095	74.350249398352	0.001
14	526096	74.400249398352	0.002
14	526097	74.450249398352	0.001
14	526098	74.500249398352	0.002
14	526099	74.550249398352	0.001
14	526100	74.600249398352	0.002
14	526101	74.650249398352	0.001
14	526102	74.700249398352	0.002
14	526103	74.750249398352	0.001
14	526104	74.800249398352	0.002
14	526105	74.850249398352	0.001
14	526106	74.900249398352	0.002
14	526107	74.950249398352	0.001
14	526108	75.000249398352	0.002
14	526109	75.050249398352	0.001
14	526110	75.100249398352	0.002
14	526111	75.150249398352	0.001
14	526112	75.200249398352	0.002
14	526113	75.250249398352	0.001
14	526114	75.300249398352	0.002
14	526115	75.350249398352	0.001
14	526116	75.400249398352	0.002
14	526117	75.450249398352	0.001
14	526118	75.500249398352	0.002
14	526119	75.550249398352	0.001
14	526120	75.600249398352	0.002
14	526121	75.650249398352	0.001
14	526122	75.700249398352	0.002
14	526123	75.750249398352	0.001
14	526124	75.800249398352	0.002
14	526125	75.850249398352	0.001
14	526126	75.900249398352	0.002
14	526127	75.950249398352	0.001
