version 2
run VoIP-50ms_440B-3-20160923-14:16:05-14725
attr configname VoIP-50ms_440B
attr datetime 20160923-14:16:05
attr experiment VoIP-50ms_440B
attr inifile omnetpp.ini
attr iterationvars ""
attr iterationvars2 $repetition=3
attr measurement ""
attr network SymScenerio
attr processid 14725
attr repetition 3
attr replication #3
attr resultdir results
attr runnumber 3
attr seedset 3
param **.coreDebug false
param **.debug false
param *.**.nic.mac1609_4.bitrate 18Mbps
param *.**.nic.mac1609_4.txPower 20mW
param *.**.nic.mac1609_4.useServiceChannel true
param *.**.nic.phy80211p.analogueModels "xmldoc(\"config.xml\")"
param *.**.nic.phy80211p.decider "xmldoc(\"config.xml\")"
param *.**.nic.phy80211p.sensitivity -89dBm
param *.**.nic.phy80211p.thermalNoise -110dBm
param *.**.nic.phy80211p.usePropagationDelay true
param *.**.nic.phy80211p.useThermalNoise true
param *.annotations.draw false
param *.connectionManager.alpha 2.0
param *.connectionManager.carrierFrequency "5.890e9 Hz"
param *.connectionManager.pMax 20mW
param *.connectionManager.sat -89dBm
param *.connectionManager.sendDirect true
param *.manager.autoShutdown true
param *.manager.host "\"localhost\""
param *.manager.launchConfig "xmldoc(\"map.launchd.xml\")"
param *.manager.margin 25
param *.manager.moduleDisplayString "\"\""
param *.manager.moduleName "\"node\""
param *.manager.moduleType "\"symulacja.veins.nodes.Car\""
param *.manager.port 9999
param *.manager.updateInterval 0.1s
param *.node[*].appl.beaconInterval 1s
param *.node[*].appl.beaconPriority 3
param *.node[*].appl.dataOnSch false
param *.node[*].appl.dataPriority 2
param *.node[*].appl.debug false
param *.node[*].appl.maxOffset 0.005s
param *.node[*].appl.sendBeacons false
param *.node[*].appl.sendData true
param *.node[*].appl.sendVoIP true
param *.node[*].appl.voipInterval 0.050s
param *.node[*].appl.voipLengthBits 3520bit
param *.node[*].appl.voipOnSch true
param *.node[*].appl.voipPriority 3
param *.node[*].applType "\"Sym11p\""
param *.node[*].veinsmobility.x 0
param *.node[*].veinsmobility.y 0
param *.node[*].veinsmobility.z 1.895
param *.node[*].veinsmobilityType "\"symulacja.veins.modules.mobility.traci.TraCIMobility\""
param *.playgroundSizeX 9000m
param *.playgroundSizeY 9000m
param *.playgroundSizeZ 50m
param *.rsu[*].appl.beaconInterval 1s
param *.rsu[*].appl.beaconPriority 3
param *.rsu[*].appl.dataOnSch false
param *.rsu[*].appl.dataPriority 2
param *.rsu[*].appl.debug false
param *.rsu[*].appl.headerLength "256 bit"
param *.rsu[*].appl.maxOffset 0.005s
param *.rsu[*].appl.sendBeacons false
param *.rsu[*].appl.sendData false
param *.rsu[*].appl.sendVoIP false
param *.rsu[*].applType "\"SymRSU11p\""
param *.rsu[0].mobility.x 2160
param *.rsu[0].mobility.y 3100
param *.rsu[0].mobility.z 3
param *.world.use2D false
param *.world.useTorus false

vector 14  SymScenerio.rsu[0].nic.mac1609_4  "Interwały kanałów"  ETV
vector 23  SymScenerio.node[0].veinsmobility  posx  ETV
vector 24  SymScenerio.node[0].veinsmobility  posy  ETV
vector 22  SymScenerio.node[0].nic.mac1609_4  "Interwały kanałów"  ETV
vector 25  SymScenerio.node[0].veinsmobility  speed  ETV
vector 26  SymScenerio.node[0].veinsmobility  acceleration  ETV
vector 27  SymScenerio.node[0].veinsmobility  co2emission  ETV
vector 15  SymScenerio.node[0].appl  "TX Packets"  ETV
vector 16  SymScenerio.node[0].appl  "TX Total"  ETV
vector 17  SymScenerio.node[0].appl  Pakietyzacja  ETV
vector 5  SymScenerio.rsu[0].appl  nodeALL:vector  ETV
attr source  nodeALL
attr title  "Opoznienia ALL, vector"
vector 9  SymScenerio.rsu[0].appl  "RX Packet"  ETV
vector 0  SymScenerio.rsu[0].appl  node0:vector  ETV
attr source  node0
attr title  "Opoznienia node0, vector"
vector 36  SymScenerio.node[1].veinsmobility  posx  ETV
vector 37  SymScenerio.node[1].veinsmobility  posy  ETV
vector 35  SymScenerio.node[1].nic.mac1609_4  "Interwały kanałów"  ETV
vector 38  SymScenerio.node[1].veinsmobility  speed  ETV
vector 39  SymScenerio.node[1].veinsmobility  acceleration  ETV
vector 40  SymScenerio.node[1].veinsmobility  co2emission  ETV
vector 28  SymScenerio.node[1].appl  "TX Packets"  ETV
vector 29  SymScenerio.node[1].appl  "TX Total"  ETV
vector 30  SymScenerio.node[1].appl  Pakietyzacja  ETV
vector 1  SymScenerio.rsu[0].appl  node1:vector  ETV
attr source  node1
attr title  "Opoznienia node1, vector"
vector 49  SymScenerio.node[2].veinsmobility  posx  ETV
vector 50  SymScenerio.node[2].veinsmobility  posy  ETV
vector 48  SymScenerio.node[2].nic.mac1609_4  "Interwały kanałów"  ETV
vector 51  SymScenerio.node[2].veinsmobility  speed  ETV
vector 52  SymScenerio.node[2].veinsmobility  acceleration  ETV
vector 53  SymScenerio.node[2].veinsmobility  co2emission  ETV
vector 41  SymScenerio.node[2].appl  "TX Packets"  ETV
vector 42  SymScenerio.node[2].appl  "TX Total"  ETV
vector 43  SymScenerio.node[2].appl  Pakietyzacja  ETV
vector 2  SymScenerio.rsu[0].appl  node2:vector  ETV
attr source  node2
attr title  "Opoznienia node2, vector"
vector 62  SymScenerio.node[3].veinsmobility  posx  ETV
vector 63  SymScenerio.node[3].veinsmobility  posy  ETV
vector 61  SymScenerio.node[3].nic.mac1609_4  "Interwały kanałów"  ETV
vector 54  SymScenerio.node[3].appl  "TX Packets"  ETV
vector 55  SymScenerio.node[3].appl  "TX Total"  ETV
vector 56  SymScenerio.node[3].appl  Pakietyzacja  ETV
vector 3  SymScenerio.rsu[0].appl  node3:vector  ETV
attr source  node3
attr title  "Opoznienia node3, vector"
vector 64  SymScenerio.node[3].veinsmobility  speed  ETV
vector 65  SymScenerio.node[3].veinsmobility  acceleration  ETV
vector 66  SymScenerio.node[3].veinsmobility  co2emission  ETV
vector 75  SymScenerio.node[4].veinsmobility  posx  ETV
vector 76  SymScenerio.node[4].veinsmobility  posy  ETV
vector 74  SymScenerio.node[4].nic.mac1609_4  "Interwały kanałów"  ETV
vector 77  SymScenerio.node[4].veinsmobility  speed  ETV
vector 78  SymScenerio.node[4].veinsmobility  acceleration  ETV
vector 79  SymScenerio.node[4].veinsmobility  co2emission  ETV
vector 67  SymScenerio.node[4].appl  "TX Packets"  ETV
vector 68  SymScenerio.node[4].appl  "TX Total"  ETV
vector 69  SymScenerio.node[4].appl  Pakietyzacja  ETV
vector 4  SymScenerio.rsu[0].appl  node4:vector  ETV
attr source  node4
attr title  "Opoznienia node4, vector"
17	47	0.996473478922	1.002
17	65	1.046473478922	1.002
17	82	1.096473478922	1.002
17	100	1.146473478922	1.002
17	117	1.196473478922	1.002
17	135	1.246473478922	1.002
17	152	1.296473478922	1.002
17	170	1.346473478922	1.002
17	187	1.396473478922	1.002
17	205	1.446473478922	1.002
17	222	1.496473478922	1.002
17	240	1.546473478922	1.002
17	257	1.596473478922	1.002
17	275	1.646473478922	1.002
17	292	1.696473478922	1.002
17	310	1.746473478922	1.002
17	327	1.796473478922	1.002
17	345	1.846473478922	1.002
17	362	1.896473478922	1.002
17	380	1.946473478922	1.002
17	397	1.996473478922	1.002
17	415	2.046473478922	1.002
17	432	2.096473478922	1.002
17	450	2.146473478922	1.002
17	467	2.196473478922	1.002
17	485	2.246473478922	1.002
17	502	2.296473478922	1.002
17	520	2.346473478922	1.002
17	537	2.396473478922	1.002
17	555	2.446473478922	1.002
17	572	2.496473478922	1.002
17	590	2.546473478922	1.002
17	607	2.596473478922	1.002
17	625	2.646473478922	1.002
17	642	2.696473478922	1.002
17	660	2.746473478922	1.002
17	677	2.796473478922	1.002
17	695	2.846473478922	1.002
17	712	2.896473478922	1.002
17	730	2.946473478922	1.002
17	747	2.996473478922	1.002
17	765	3.046473478922	1.002
17	782	3.096473478922	1.002
17	800	3.146473478922	1.002
17	824	3.196473478922	1.002
17	849	3.246473478922	1.002
17	873	3.296473478922	1.002
17	898	3.346473478922	1.002
17	922	3.396473478922	1.002
17	947	3.446473478922	1.002
17	971	3.496473478922	1.002
17	996	3.546473478922	1.002
17	1020	3.596473478922	1.002
17	1045	3.646473478922	1.002
17	1069	3.696473478922	1.002
17	1094	3.746473478922	1.002
17	1118	3.796473478922	1.002
17	1143	3.846473478922	1.002
17	1167	3.896473478922	1.002
17	1192	3.946473478922	1.002
17	1216	3.996473478922	1.002
17	1241	4.046473478922	1.002
17	1286	4.096473478922	1.002
17	1313	4.146473478922	1.002
17	1377	4.196473478922	1.002
17	1404	4.246473478922	1.002
17	1468	4.296473478922	1.002
17	1495	4.346473478922	1.002
17	1559	4.396473478922	1.002
17	1586	4.446473478922	1.002
17	1650	4.496473478922	1.002
17	1677	4.546473478922	1.002
17	1741	4.596473478922	1.002
17	1768	4.646473478922	1.002
17	1832	4.696473478922	1.002
17	1859	4.746473478922	1.002
17	1923	4.796473478922	1.002
17	1950	4.846473478922	1.002
17	2014	4.896473478922	1.002
17	2041	4.946473478922	1.002
17	2105	4.996473478922	1.002
17	2132	5.046473478922	1.002
17	2196	5.096473478922	1.002
17	2223	5.146473478922	1.002
17	2287	5.196473478922	1.002
17	2314	5.246473478922	1.002
17	2378	5.296473478922	1.002
17	2405	5.346473478922	1.002
17	2469	5.396473478922	1.002
17	2496	5.446473478922	1.002
17	2560	5.496473478922	1.002
17	2587	5.546473478922	1.002
17	2651	5.596473478922	1.002
17	2678	5.646473478922	1.002
17	2742	5.696473478922	1.002
17	2769	5.746473478922	1.002
17	2833	5.796473478922	1.002
17	2860	5.846473478922	1.002
17	2924	5.896473478922	1.002
17	2951	5.946473478922	1.002
17	3015	5.996473478922	1.002
17	3042	6.046473478922	1.002
17	3106	6.096473478922	1.002
17	3133	6.146473478922	1.002
17	3216	6.196473478922	1.002
17	3250	6.246473478922	1.002
17	3333	6.296473478922	1.002
17	3367	6.346473478922	1.002
17	3450	6.396473478922	1.002
17	3484	6.446473478922	1.002
17	3567	6.496473478922	1.002
17	3601	6.546473478922	1.002
17	3684	6.596473478922	1.002
17	3718	6.646473478922	1.002
17	3801	6.696473478922	1.002
17	3835	6.746473478922	1.002
17	3918	6.796473478922	1.002
17	3952	6.846473478922	1.002
17	4035	6.896473478922	1.002
17	4069	6.946473478922	1.002
17	4179	6.996473478922	1.002
17	4215	7.046473478922	1.002
17	4350	7.096473478922	1.002
17	4386	7.146473478922	1.002
17	4521	7.196473478922	1.002
17	4557	7.246473478922	1.002
17	4682	7.296473478922	1.002
17	4718	7.346473478922	1.002
17	4853	7.396473478922	1.002
17	4889	7.446473478922	1.002
17	5014	7.496473478922	1.002
17	5050	7.546473478922	1.002
17	5185	7.596473478922	1.002
17	5221	7.646473478922	1.002
17	5356	7.696473478922	1.002
17	5392	7.746473478922	1.002
17	5527	7.796473478922	1.002
17	5563	7.846473478922	1.002
17	5698	7.896473478922	1.002
17	5734	7.946473478922	1.002
17	5869	7.996473478922	1.002
17	5905	8.046473478922	1.002
17	6040	8.096473478922	1.002
17	6076	8.146473478922	1.002
17	6211	8.196473478922	1.002
17	6247	8.246473478922	1.002
17	6382	8.296473478922	1.002
17	6418	8.346473478922	1.002
17	6553	8.396473478922	1.002
17	6589	8.446473478922	1.002
17	6714	8.496473478922	1.002
17	6750	8.546473478922	1.002
17	6885	8.596473478922	1.002
17	6921	8.646473478922	1.002
17	7056	8.696473478922	1.002
17	7092	8.746473478922	1.002
17	7227	8.796473478922	1.002
17	7263	8.846473478922	1.002
17	7398	8.896473478922	1.002
17	7434	8.946473478922	1.002
17	7569	8.996473478922	1.002
17	7605	9.046473478922	1.002
17	7730	9.096473478922	1.002
17	7766	9.146473478922	1.002
17	7965	9.196473478922	1.002
17	8010	9.246473478922	1.002
17	8240	9.296473478922	1.002
17	8285	9.346473478922	1.002
17	8493	9.396473478922	1.002
17	8538	9.446473478922	1.002
17	8746	9.496473478922	1.002
17	8791	9.546473478922	1.002
17	9021	9.596473478922	1.002
17	9066	9.646473478922	1.002
17	9296	9.696473478922	1.002
17	9341	9.746473478922	1.002
17	9571	9.796473478922	1.002
17	9616	9.846473478922	1.002
17	9833	9.896473478922	1.002
17	9878	9.946473478922	1.002
17	10095	9.996473478922	1.002
17	10140	10.046473478922	1.002
17	10370	10.096473478922	1.002
17	10415	10.146473478922	1.002
17	10632	10.196473478922	1.002
17	10677	10.246473478922	1.002
17	10894	10.296473478922	1.002
17	10939	10.346473478922	1.002
17	11156	10.396473478922	1.002
17	11201	10.446473478922	1.002
17	11418	10.496473478922	1.002
17	11463	10.546473478922	1.002
17	11680	10.596473478922	1.002
17	11725	10.646473478922	1.002
17	11942	10.696473478922	1.002
17	11987	10.746473478922	1.002
17	12204	10.796473478922	1.002
17	12249	10.846473478922	1.002
17	12466	10.896473478922	1.002
17	12511	10.946473478922	1.002
17	12728	10.996473478922	1.002
17	12773	11.046473478922	1.002
17	13003	11.096473478922	1.002
17	13048	11.146473478922	1.002
17	13278	11.196473478922	1.002
17	13323	11.246473478922	1.002
17	13553	11.296473478922	1.002
17	13598	11.346473478922	1.002
17	13815	11.396473478922	1.002
17	13860	11.446473478922	1.002
17	14077	11.496473478922	1.002
17	14122	11.546473478922	1.002
17	14352	11.596473478922	1.002
17	14397	11.646473478922	1.002
17	14614	11.696473478922	1.002
17	14659	11.746473478922	1.002
17	14889	11.796473478922	1.002
17	14934	11.846473478922	1.002
17	15164	11.896473478922	1.002
17	15209	11.946473478922	1.002
17	15426	11.996473478922	1.002
17	15471	12.046473478922	1.002
17	15688	12.096473478922	1.002
17	15733	12.146473478922	1.002
17	15990	12.196473478922	1.002
17	16042	12.246473478922	1.002
17	16299	12.296473478922	1.002
17	16351	12.346473478922	1.002
17	16624	12.396473478922	1.002
17	16676	12.446473478922	1.002
17	16949	12.496473478922	1.002
17	17001	12.546473478922	1.002
17	17258	12.596473478922	1.002
17	17310	12.646473478922	1.002
17	17567	12.696473478922	1.002
17	17619	12.746473478922	1.002
17	17915	12.796473478922	1.002
17	17969	12.846473478922	1.002
17	18291	12.896473478922	1.002
17	18345	12.946473478922	1.002
17	18662	12.996473478922	1.002
17	18716	13.046473478922	1.002
17	19049	13.096473478922	1.002
17	19103	13.146473478922	1.002
17	19436	13.196473478922	1.002
17	19490	13.246473478922	1.002
17	19823	13.296473478922	1.002
17	19877	13.346473478922	1.002
17	20194	13.396473478922	1.002
17	20248	13.446473478922	1.002
17	20570	13.496473478922	1.002
17	20624	13.546473478922	1.002
17	20946	13.596473478922	1.002
17	21000	13.646473478922	1.002
17	21333	13.696473478922	1.002
17	21387	13.746473478922	1.002
17	21720	13.796473478922	1.002
17	21774	13.846473478922	1.002
17	22123	13.896473478922	1.002
17	22177	13.946473478922	1.002
17	22499	13.996473478922	1.002
17	22553	14.046473478922	1.002
17	22902	14.096473478922	1.002
17	22956	14.146473478922	1.002
17	23289	14.196473478922	1.002
17	23343	14.246473478922	1.002
17	23692	14.296473478922	1.002
17	23746	14.346473478922	1.002
17	24095	14.396473478922	1.002
17	24149	14.446473478922	1.002
17	24466	14.496473478922	1.002
17	24520	14.546473478922	1.002
17	24853	14.596473478922	1.002
17	24907	14.646473478922	1.002
17	25240	14.696473478922	1.002
17	25294	14.746473478922	1.002
17	25643	14.796473478922	1.002
17	25697	14.846473478922	1.002
17	26014	14.896473478922	1.002
17	26068	14.946473478922	1.002
17	26390	14.996473478922	1.002
17	26444	15.046473478922	1.002
17	26766	15.096473478922	1.002
17	26820	15.146473478922	1.002
17	27153	15.196473478922	1.002
17	27207	15.246473478922	1.002
17	27540	15.296473478922	1.002
17	27594	15.346473478922	1.002
17	27927	15.396473478922	1.002
17	27981	15.446473478922	1.002
17	28298	15.496473478922	1.002
17	28352	15.546473478922	1.002
17	28669	15.596473478922	1.002
17	28723	15.646473478922	1.002
17	29045	15.696473478922	1.002
17	29099	15.746473478922	1.002
17	29416	15.796473478922	1.002
17	29470	15.846473478922	1.002
17	29803	15.896473478922	1.002
17	29857	15.946473478922	1.002
17	30190	15.996473478922	1.002
17	30244	16.046473478922	1.002
17	30577	16.096473478922	1.002
17	30631	16.146473478922	1.002
17	30964	16.196473478922	1.002
17	31018	16.246473478922	1.002
17	31335	16.296473478922	1.002
17	31389	16.346473478922	1.002
17	31722	16.396473478922	1.002
17	31776	16.446473478922	1.002
17	32109	16.496473478922	1.002
17	32163	16.546473478922	1.002
17	32512	16.596473478922	1.002
17	32566	16.646473478922	1.002
17	32888	16.696473478922	1.002
17	32942	16.746473478922	1.002
17	33264	16.796473478922	1.002
17	33318	16.846473478922	1.002
17	33651	16.896473478922	1.002
17	33705	16.946473478922	1.002
17	34038	16.996473478922	1.002
17	34092	17.046473478922	1.002
17	34425	17.096473478922	1.002
17	34479	17.146473478922	1.002
17	34812	17.196473478922	1.002
17	34866	17.246473478922	1.002
17	35199	17.296473478922	1.002
17	35253	17.346473478922	1.002
17	35586	17.396473478922	1.002
17	35640	17.446473478922	1.002
17	35973	17.496473478922	1.002
17	36027	17.546473478922	1.002
17	36349	17.596473478922	1.002
17	36403	17.646473478922	1.002
17	36720	17.696473478922	1.002
17	36774	17.746473478922	1.002
17	37096	17.796473478922	1.002
17	37150	17.846473478922	1.002
17	37499	17.896473478922	1.002
17	37553	17.946473478922	1.002
17	37886	17.996473478922	1.002
17	37940	18.046473478922	1.002
17	38262	18.096473478922	1.002
17	38316	18.146473478922	1.002
17	38665	18.196473478922	1.002
17	38719	18.246473478922	1.002
17	39036	18.296473478922	1.002
17	39090	18.346473478922	1.002
17	39439	18.396473478922	1.002
17	39493	18.446473478922	1.002
17	39826	18.496473478922	1.002
17	39880	18.546473478922	1.002
17	40213	18.596473478922	1.002
17	40267	18.646473478922	1.002
17	40600	18.696473478922	1.002
17	40654	18.746473478922	1.002
17	40987	18.796473478922	1.002
17	41041	18.846473478922	1.002
17	41390	18.896473478922	1.002
17	41444	18.946473478922	1.002
17	41793	18.996473478922	1.002
17	41847	19.046473478922	1.002
17	42169	19.096473478922	1.002
17	42223	19.146473478922	1.002
17	42556	19.196473478922	1.002
17	42610	19.246473478922	1.002
17	42943	19.296473478922	1.002
17	42997	19.346473478922	1.002
17	43330	19.396473478922	1.002
17	43384	19.446473478922	1.002
17	43701	19.496473478922	1.002
17	43755	19.546473478922	1.002
17	44072	19.596473478922	1.002
17	44126	19.646473478922	1.002
17	44459	19.696473478922	1.002
17	44513	19.746473478922	1.002
17	44824	19.796473478922	1.002
17	44878	19.846473478922	1.002
17	45211	19.896473478922	1.002
17	45265	19.946473478922	1.002
17	45614	19.996473478922	1.002
17	45668	20.046473478922	1.002
17	45985	20.096473478922	1.002
17	46039	20.146473478922	1.002
17	46372	20.196473478922	1.002
17	46426	20.246473478922	1.002
17	46759	20.296473478922	1.002
17	46813	20.346473478922	1.002
17	47146	20.396473478922	1.002
17	47200	20.446473478922	1.002
17	47533	20.496473478922	1.002
17	47587	20.546473478922	1.002
17	47920	20.596473478922	1.002
17	47974	20.646473478922	1.002
17	48296	20.696473478922	1.002
17	48350	20.746473478922	1.002
17	48667	20.796473478922	1.002
17	48721	20.846473478922	1.002
17	49043	20.896473478922	1.002
17	49097	20.946473478922	1.002
17	49446	20.996473478922	1.002
17	49500	21.046473478922	1.002
17	49833	21.096473478922	1.002
17	49887	21.146473478922	1.002
17	50220	21.196473478922	1.002
17	50274	21.246473478922	1.002
17	50596	21.296473478922	1.002
17	50650	21.346473478922	1.002
17	50967	21.396473478922	1.002
17	51021	21.446473478922	1.002
17	51354	21.496473478922	1.002
17	51408	21.546473478922	1.002
17	51730	21.596473478922	1.002
17	51784	21.646473478922	1.002
17	52133	21.696473478922	1.002
17	52187	21.746473478922	1.002
17	52520	21.796473478922	1.002
17	52574	21.846473478922	1.002
17	52907	21.896473478922	1.002
17	52961	21.946473478922	1.002
17	53283	21.996473478922	1.002
17	53337	22.046473478922	1.002
17	53659	22.096473478922	1.002
17	53713	22.146473478922	1.002
17	54062	22.196473478922	1.002
17	54116	22.246473478922	1.002
17	54465	22.296473478922	1.002
17	54519	22.346473478922	1.002
17	54852	22.396473478922	1.002
17	54906	22.446473478922	1.002
17	55217	22.496473478922	1.002
17	55271	22.546473478922	1.002
17	55604	22.596473478922	1.002
17	55658	22.646473478922	1.002
17	55991	22.696473478922	1.002
17	56045	22.746473478922	1.002
17	56378	22.796473478922	1.002
17	56432	22.846473478922	1.002
17	56781	22.896473478922	1.002
17	56835	22.946473478922	1.002
17	57168	22.996473478922	1.002
17	57222	23.046473478922	1.002
17	57555	23.096473478922	1.002
17	57609	23.146473478922	1.002
17	57926	23.196473478922	1.002
17	57980	23.246473478922	1.002
17	58302	23.296473478922	1.002
17	58356	23.346473478922	1.002
17	58705	23.396473478922	1.002
17	58759	23.446473478922	1.002
17	59092	23.496473478922	1.002
17	59146	23.546473478922	1.002
17	59495	23.596473478922	1.002
17	59549	23.646473478922	1.002
17	59898	23.696473478922	1.002
17	59952	23.746473478922	1.002
17	60301	23.796473478922	1.002
17	60355	23.846473478922	1.002
17	60704	23.896473478922	1.002
17	60758	23.946473478922	1.002
17	61080	23.996473478922	1.002
17	61134	24.046473478922	1.002
17	61467	24.096473478922	1.002
17	61521	24.146473478922	1.002
17	61854	24.196473478922	1.002
17	61908	24.246473478922	1.002
17	62241	24.296473478922	1.002
17	62295	24.346473478922	1.002
17	62628	24.396473478922	1.002
17	62682	24.446473478922	1.002
17	63015	24.496473478922	1.002
17	63069	24.546473478922	1.002
17	63402	24.596473478922	1.002
17	63456	24.646473478922	1.002
17	63778	24.696473478922	1.002
17	63832	24.746473478922	1.002
17	64154	24.796473478922	1.002
17	64208	24.846473478922	1.002
17	64541	24.896473478922	1.002
17	64595	24.946473478922	1.002
17	64917	24.996473478922	1.002
17	64971	25.046473478922	1.002
17	65304	25.096473478922	1.002
17	65358	25.146473478922	1.002
17	65691	25.196473478922	1.002
17	65745	25.246473478922	1.002
17	66094	25.296473478922	1.002
17	66148	25.346473478922	1.002
17	66481	25.396473478922	1.002
17	66535	25.446473478922	1.002
17	66846	25.496473478922	1.002
17	66900	25.546473478922	1.002
17	67233	25.596473478922	1.002
17	67287	25.646473478922	1.002
17	67620	25.696473478922	1.002
17	67674	25.746473478922	1.002
17	68007	25.796473478922	1.002
17	68061	25.846473478922	1.002
17	68394	25.896473478922	1.002
17	68448	25.946473478922	1.002
17	68765	25.996473478922	1.002
17	68819	26.046473478922	1.002
17	69152	26.096473478922	1.002
17	69206	26.146473478922	1.002
17	69539	26.196473478922	1.002
17	69593	26.246473478922	1.002
17	69915	26.296473478922	1.002
17	69969	26.346473478922	1.002
17	70318	26.396473478922	1.002
17	70372	26.446473478922	1.002
17	70705	26.496473478922	1.002
17	70759	26.546473478922	1.002
17	71081	26.596473478922	1.002
17	71135	26.646473478922	1.002
17	71468	26.696473478922	1.002
17	71522	26.746473478922	1.002
17	71844	26.796473478922	1.002
17	71898	26.846473478922	1.002
17	72220	26.896473478922	1.002
17	72274	26.946473478922	1.002
17	72596	26.996473478922	1.002
17	72650	27.046473478922	1.002
17	72967	27.096473478922	1.002
17	73021	27.146473478922	1.002
17	73370	27.196473478922	1.002
17	73424	27.246473478922	1.002
17	73757	27.296473478922	1.002
17	73811	27.346473478922	1.002
17	74144	27.396473478922	1.002
17	74198	27.446473478922	1.002
17	74515	27.496473478922	1.002
17	74569	27.546473478922	1.002
17	74902	27.596473478922	1.002
17	74956	27.646473478922	1.002
17	75278	27.696473478922	1.002
17	75332	27.746473478922	1.002
17	75665	27.796473478922	1.002
17	75719	27.846473478922	1.002
17	76041	27.896473478922	1.002
17	76095	27.946473478922	1.002
17	76412	27.996473478922	1.002
17	76466	28.046473478922	1.002
17	76799	28.096473478922	1.002
17	76853	28.146473478922	1.002
17	77186	28.196473478922	1.002
17	77240	28.246473478922	1.002
17	77573	28.296473478922	1.002
17	77627	28.346473478922	1.002
17	77960	28.396473478922	1.002
17	78014	28.446473478922	1.002
17	78347	28.496473478922	1.002
17	78401	28.546473478922	1.002
17	78734	28.596473478922	1.002
17	78788	28.646473478922	1.002
17	79137	28.696473478922	1.002
17	79191	28.746473478922	1.002
17	79524	28.796473478922	1.002
17	79578	28.846473478922	1.002
17	79911	28.896473478922	1.002
17	79965	28.946473478922	1.002
17	80298	28.996473478922	1.002
17	80352	29.046473478922	1.002
17	80674	29.096473478922	1.002
17	80728	29.146473478922	1.002
17	81061	29.196473478922	1.002
17	81115	29.246473478922	1.002
17	81448	29.296473478922	1.002
17	81502	29.346473478922	1.002
17	81835	29.396473478922	1.002
17	81889	29.446473478922	1.002
17	82222	29.496473478922	1.002
17	82276	29.546473478922	1.002
17	82609	29.596473478922	1.002
17	82663	29.646473478922	1.002
17	82985	29.696473478922	1.002
17	83039	29.746473478922	1.002
17	83361	29.796473478922	1.002
17	83415	29.846473478922	1.002
17	83732	29.896473478922	1.002
17	83786	29.946473478922	1.002
17	84135	29.996473478922	1.002
17	84189	30.046473478922	1.002
17	84522	30.096473478922	1.002
17	84576	30.146473478922	1.002
17	84898	30.196473478922	1.002
17	84952	30.246473478922	1.002
17	85274	30.296473478922	1.002
17	85328	30.346473478922	1.002
17	85645	30.396473478922	1.002
17	85699	30.446473478922	1.002
17	86016	30.496473478922	1.002
17	86070	30.546473478922	1.002
17	86403	30.596473478922	1.002
17	86457	30.646473478922	1.002
17	86779	30.696473478922	1.002
17	86833	30.746473478922	1.002
17	87182	30.796473478922	1.002
17	87236	30.846473478922	1.002
17	87569	30.896473478922	1.002
17	87623	30.946473478922	1.002
17	87956	30.996473478922	1.002
17	88010	31.046473478922	1.002
17	88332	31.096473478922	1.002
17	88386	31.146473478922	1.002
17	88703	31.196473478922	1.002
17	88757	31.246473478922	1.002
17	89090	31.296473478922	1.002
17	89144	31.346473478922	1.002
17	89461	31.396473478922	1.002
17	89515	31.446473478922	1.002
17	89832	31.496473478922	1.002
17	89886	31.546473478922	1.002
17	90208	31.596473478922	1.002
17	90262	31.646473478922	1.002
17	90579	31.696473478922	1.002
17	90633	31.746473478922	1.002
17	90966	31.796473478922	1.002
17	91020	31.846473478922	1.002
17	91342	31.896473478922	1.002
17	91396	31.946473478922	1.002
17	91745	31.996473478922	1.002
17	91799	32.046473478922	1.002
17	92121	32.096473478922	1.002
17	92175	32.146473478922	1.002
17	92497	32.196473478922	1.002
17	92551	32.246473478922	1.002
17	92900	32.296473478922	1.002
17	92954	32.346473478922	1.002
17	93287	32.396473478922	1.002
17	93341	32.446473478922	1.002
17	93663	32.496473478922	1.002
17	93717	32.546473478922	1.002
17	94050	32.596473478922	1.002
17	94104	32.646473478922	1.002
17	94421	32.696473478922	1.002
17	94475	32.746473478922	1.002
17	94808	32.796473478922	1.002
17	94862	32.846473478922	1.002
17	95195	32.896473478922	1.002
17	95249	32.946473478922	1.002
17	95566	32.996473478922	1.002
17	95620	33.046473478922	1.002
17	95953	33.096473478922	1.002
17	96007	33.146473478922	1.002
17	96340	33.196473478922	1.002
17	96394	33.246473478922	1.002
17	96743	33.296473478922	1.002
17	96797	33.346473478922	1.002
17	97130	33.396473478922	1.002
17	97184	33.446473478922	1.002
17	97506	33.496473478922	1.002
17	97560	33.546473478922	1.002
17	97893	33.596473478922	1.002
17	97947	33.646473478922	1.002
17	98280	33.696473478922	1.002
17	98334	33.746473478922	1.002
17	98667	33.796473478922	1.002
17	98721	33.846473478922	1.002
17	99054	33.896473478922	1.002
17	99108	33.946473478922	1.002
17	99441	33.996473478922	1.002
17	99495	34.046473478922	1.002
17	99828	34.096473478922	1.002
17	99882	34.146473478922	1.002
17	100215	34.196473478922	1.002
17	100269	34.246473478922	1.002
17	100591	34.296473478922	1.002
17	100645	34.346473478922	1.002
17	100978	34.396473478922	1.002
17	101032	34.446473478922	1.002
17	101349	34.496473478922	1.002
17	101403	34.546473478922	1.002
17	101736	34.596473478922	1.002
17	101790	34.646473478922	1.002
17	102123	34.696473478922	1.002
17	102177	34.746473478922	1.002
17	102510	34.796473478922	1.002
17	102564	34.846473478922	1.002
17	102886	34.896473478922	1.002
17	102940	34.946473478922	1.002
17	103273	34.996473478922	1.002
17	103327	35.046473478922	1.002
17	103660	35.096473478922	1.002
17	103714	35.146473478922	1.002
17	104025	35.196473478922	1.002
17	104079	35.246473478922	1.002
17	104412	35.296473478922	1.002
17	104466	35.346473478922	1.002
17	104799	35.396473478922	1.002
17	104853	35.446473478922	1.002
17	105186	35.496473478922	1.002
17	105240	35.546473478922	1.002
17	105589	35.596473478922	1.002
17	105643	35.646473478922	1.002
17	105976	35.696473478922	1.002
17	106030	35.746473478922	1.002
17	106363	35.796473478922	1.002
17	106417	35.846473478922	1.002
17	106766	35.896473478922	1.002
17	106820	35.946473478922	1.002
17	107169	35.996473478922	1.002
17	107223	36.046473478922	1.002
17	107540	36.096473478922	1.002
17	107594	36.146473478922	1.002
17	107927	36.196473478922	1.002
17	107981	36.246473478922	1.002
17	108314	36.296473478922	1.002
17	108368	36.346473478922	1.002
17	108690	36.396473478922	1.002
17	108744	36.446473478922	1.002
17	109077	36.496473478922	1.002
17	109131	36.546473478922	1.002
17	109464	36.596473478922	1.002
17	109518	36.646473478922	1.002
17	109851	36.696473478922	1.002
17	109905	36.746473478922	1.002
17	110238	36.796473478922	1.002
17	110292	36.846473478922	1.002
17	110625	36.896473478922	1.002
17	110679	36.946473478922	1.002
17	111012	36.996473478922	1.002
17	111066	37.046473478922	1.002
17	111399	37.096473478922	1.002
17	111453	37.146473478922	1.002
17	111786	37.196473478922	1.002
17	111840	37.246473478922	1.002
17	112173	37.296473478922	1.002
17	112227	37.346473478922	1.002
17	112560	37.396473478922	1.002
17	112614	37.446473478922	1.002
17	112947	37.496473478922	1.002
17	113001	37.546473478922	1.002
17	113334	37.596473478922	1.002
17	113388	37.646473478922	1.002
17	113721	37.696473478922	1.002
17	113775	37.746473478922	1.002
17	114108	37.796473478922	1.002
17	114162	37.846473478922	1.002
17	114495	37.896473478922	1.002
17	114549	37.946473478922	1.002
17	114882	37.996473478922	1.002
17	114936	38.046473478922	1.002
17	115269	38.096473478922	1.002
17	115323	38.146473478922	1.002
17	115634	38.196473478922	1.002
17	115688	38.246473478922	1.002
17	116021	38.296473478922	1.002
17	116075	38.346473478922	1.002
17	116392	38.396473478922	1.002
17	116446	38.446473478922	1.002
17	116779	38.496473478922	1.002
17	116833	38.546473478922	1.002
17	117166	38.596473478922	1.002
17	117220	38.646473478922	1.002
17	117553	38.696473478922	1.002
17	117607	38.746473478922	1.002
17	117929	38.796473478922	1.002
17	117983	38.846473478922	1.002
17	118316	38.896473478922	1.002
17	118370	38.946473478922	1.002
17	118692	38.996473478922	1.002
17	118746	39.046473478922	1.002
17	119068	39.096473478922	1.002
17	119122	39.146473478922	1.002
17	119455	39.196473478922	1.002
17	119509	39.246473478922	1.002
17	119842	39.296473478922	1.002
17	119896	39.346473478922	1.002
17	120213	39.396473478922	1.002
17	120267	39.446473478922	1.002
17	120589	39.496473478922	1.002
17	120643	39.546473478922	1.002
17	120976	39.596473478922	1.002
17	121030	39.646473478922	1.002
17	121363	39.696473478922	1.002
17	121417	39.746473478922	1.002
17	121750	39.796473478922	1.002
17	121804	39.846473478922	1.002
17	122137	39.896473478922	1.002
17	122191	39.946473478922	1.002
17	122524	39.996473478922	1.002
17	122578	40.046473478922	1.002
17	122911	40.096473478922	1.002
17	122965	40.146473478922	1.002
17	123298	40.196473478922	1.002
17	123352	40.246473478922	1.002
17	123685	40.296473478922	1.002
17	123739	40.346473478922	1.002
17	124072	40.396473478922	1.002
17	124126	40.446473478922	1.002
17	124448	40.496473478922	1.002
17	124502	40.546473478922	1.002
17	124835	40.596473478922	1.002
17	124889	40.646473478922	1.002
17	125211	40.696473478922	1.002
17	125265	40.746473478922	1.002
17	125582	40.796473478922	1.002
17	125636	40.846473478922	1.002
17	125969	40.896473478922	1.002
17	126023	40.946473478922	1.002
17	126356	40.996473478922	1.002
17	126410	41.046473478922	1.002
17	126732	41.096473478922	1.002
17	126786	41.146473478922	1.002
17	127119	41.196473478922	1.002
17	127173	41.246473478922	1.002
17	127506	41.296473478922	1.002
17	127560	41.346473478922	1.002
17	127882	41.396473478922	1.002
17	127936	41.446473478922	1.002
17	128253	41.496473478922	1.002
17	128307	41.546473478922	1.002
17	128640	41.596473478922	1.002
17	128694	41.646473478922	1.002
17	129027	41.696473478922	1.002
17	129081	41.746473478922	1.002
17	129430	41.796473478922	1.002
17	129484	41.846473478922	1.002
17	129801	41.896473478922	1.002
17	129855	41.946473478922	1.002
17	130172	41.996473478922	1.002
17	130226	42.046473478922	1.002
17	130559	42.096473478922	1.002
17	130613	42.146473478922	1.002
17	130935	42.196473478922	1.002
17	130989	42.246473478922	1.002
17	131306	42.296473478922	1.002
17	131360	42.346473478922	1.002
17	131677	42.396473478922	1.002
17	131731	42.446473478922	1.002
17	132080	42.496473478922	1.002
17	132134	42.546473478922	1.002
17	132467	42.596473478922	1.002
17	132521	42.646473478922	1.002
17	132843	42.696473478922	1.002
17	132897	42.746473478922	1.002
17	133219	42.796473478922	1.002
17	133273	42.846473478922	1.002
17	133606	42.896473478922	1.002
17	133660	42.946473478922	1.002
17	133993	42.996473478922	1.002
17	134047	43.046473478922	1.002
17	134380	43.096473478922	1.002
17	134434	43.146473478922	1.002
17	134767	43.196473478922	1.002
17	134821	43.246473478922	1.002
17	135138	43.296473478922	1.002
17	135192	43.346473478922	1.002
17	135514	43.396473478922	1.002
17	135568	43.446473478922	1.002
17	135890	43.496473478922	1.002
17	135944	43.546473478922	1.002
17	136277	43.596473478922	1.002
17	136331	43.646473478922	1.002
17	136664	43.696473478922	1.002
17	136718	43.746473478922	1.002
17	137051	43.796473478922	1.002
17	137105	43.846473478922	1.002
17	137438	43.896473478922	1.002
17	137492	43.946473478922	1.002
17	137809	43.996473478922	1.002
17	137863	44.046473478922	1.002
17	138185	44.096473478922	1.002
17	138239	44.146473478922	1.002
17	138572	44.196473478922	1.002
17	138626	44.246473478922	1.002
17	138959	44.296473478922	1.002
17	139013	44.346473478922	1.002
17	139335	44.396473478922	1.002
17	139389	44.446473478922	1.002
17	139722	44.496473478922	1.002
17	139776	44.546473478922	1.002
17	140109	44.596473478922	1.002
17	140163	44.646473478922	1.002
17	140496	44.696473478922	1.002
17	140550	44.746473478922	1.002
17	140883	44.796473478922	1.002
17	140937	44.846473478922	1.002
17	141254	44.896473478922	1.002
17	141308	44.946473478922	1.002
17	141641	44.996473478922	1.002
17	141695	45.046473478922	1.002
17	142028	45.096473478922	1.002
17	142082	45.146473478922	1.002
17	142415	45.196473478922	1.002
17	142469	45.246473478922	1.002
17	142786	45.296473478922	1.002
17	142840	45.346473478922	1.002
17	143173	45.396473478922	1.002
17	143227	45.446473478922	1.002
17	143560	45.496473478922	1.002
17	143614	45.546473478922	1.002
17	143947	45.596473478922	1.002
17	144001	45.646473478922	1.002
17	144334	45.696473478922	1.002
17	144388	45.746473478922	1.002
17	144721	45.796473478922	1.002
17	144775	45.846473478922	1.002
17	145108	45.896473478922	1.002
17	145162	45.946473478922	1.002
17	145495	45.996473478922	1.002
17	145549	46.046473478922	1.002
17	145866	46.096473478922	1.002
17	145920	46.146473478922	1.002
17	146253	46.196473478922	1.002
17	146307	46.246473478922	1.002
17	146640	46.296473478922	1.002
17	146694	46.346473478922	1.002
17	147016	46.396473478922	1.002
17	147070	46.446473478922	1.002
17	147403	46.496473478922	1.002
17	147457	46.546473478922	1.002
17	147790	46.596473478922	1.002
17	147844	46.646473478922	1.002
17	148161	46.696473478922	1.002
17	148215	46.746473478922	1.002
17	148537	46.796473478922	1.002
17	148591	46.846473478922	1.002
17	148908	46.896473478922	1.002
17	148962	46.946473478922	1.002
17	149295	46.996473478922	1.002
17	149349	47.046473478922	1.002
17	149682	47.096473478922	1.002
17	149736	47.146473478922	1.002
17	150053	47.196473478922	1.002
17	150107	47.246473478922	1.002
17	150440	47.296473478922	1.002
17	150494	47.346473478922	1.002
17	150816	47.396473478922	1.002
17	150870	47.446473478922	1.002
17	151203	47.496473478922	1.002
17	151257	47.546473478922	1.002
17	151590	47.596473478922	1.002
17	151644	47.646473478922	1.002
17	151977	47.696473478922	1.002
17	152031	47.746473478922	1.002
17	152348	47.796473478922	1.002
17	152402	47.846473478922	1.002
17	152724	47.896473478922	1.002
17	152778	47.946473478922	1.002
17	153111	47.996473478922	1.002
17	153165	48.046473478922	1.002
17	153487	48.096473478922	1.002
17	153541	48.146473478922	1.002
17	153890	48.196473478922	1.002
17	153944	48.246473478922	1.002
17	154277	48.296473478922	1.002
17	154331	48.346473478922	1.002
17	154664	48.396473478922	1.002
17	154718	48.446473478922	1.002
17	155051	48.496473478922	1.002
17	155105	48.546473478922	1.002
17	155427	48.596473478922	1.002
17	155481	48.646473478922	1.002
17	155814	48.696473478922	1.002
17	155868	48.746473478922	1.002
17	156201	48.796473478922	1.002
17	156255	48.846473478922	1.002
17	156588	48.896473478922	1.002
17	156642	48.946473478922	1.002
17	156975	48.996473478922	1.002
17	157029	49.046473478922	1.002
17	157362	49.096473478922	1.002
17	157416	49.146473478922	1.002
17	157749	49.196473478922	1.002
17	157803	49.246473478922	1.002
17	158120	49.296473478922	1.002
17	158174	49.346473478922	1.002
17	158507	49.396473478922	1.002
17	158561	49.446473478922	1.002
17	158894	49.496473478922	1.002
17	158948	49.546473478922	1.002
17	159270	49.596473478922	1.002
17	159324	49.646473478922	1.002
17	159673	49.696473478922	1.002
17	159727	49.746473478922	1.002
17	160060	49.796473478922	1.002
17	160114	49.846473478922	1.002
17	160447	49.896473478922	1.002
17	160501	49.946473478922	1.002
17	160823	49.996473478922	1.002
17	160877	50.046473478922	1.002
17	161199	50.096473478922	1.002
17	161253	50.146473478922	1.002
17	161602	50.196473478922	1.002
17	161656	50.246473478922	1.002
17	161989	50.296473478922	1.002
17	162043	50.346473478922	1.002
17	162376	50.396473478922	1.002
17	162430	50.446473478922	1.002
17	162752	50.496473478922	1.002
17	162806	50.546473478922	1.002
17	163123	50.596473478922	1.002
17	163177	50.646473478922	1.002
17	163494	50.696473478922	1.002
17	163548	50.746473478922	1.002
17	163881	50.796473478922	1.002
17	163935	50.846473478922	1.002
17	164268	50.896473478922	1.002
17	164322	50.946473478922	1.002
17	164655	50.996473478922	1.002
17	164709	51.046473478922	1.002
17	165042	51.096473478922	1.002
17	165096	51.146473478922	1.002
17	165413	51.196473478922	1.002
17	165467	51.246473478922	1.002
17	165800	51.296473478922	1.002
17	165854	51.346473478922	1.002
17	166187	51.396473478922	1.002
17	166241	51.446473478922	1.002
17	166574	51.496473478922	1.002
17	166628	51.546473478922	1.002
17	166961	51.596473478922	1.002
17	167015	51.646473478922	1.002
17	167337	51.696473478922	1.002
17	167391	51.746473478922	1.002
17	167708	51.796473478922	1.002
17	167762	51.846473478922	1.002
17	168079	51.896473478922	1.002
17	168133	51.946473478922	1.002
17	168466	51.996473478922	1.002
17	168520	52.046473478922	1.002
17	168853	52.096473478922	1.002
17	168907	52.146473478922	1.002
17	169240	52.196473478922	1.002
17	169294	52.246473478922	1.002
17	169627	52.296473478922	1.002
17	169681	52.346473478922	1.002
17	169998	52.396473478922	1.002
17	170052	52.446473478922	1.002
17	170385	52.496473478922	1.002
17	170439	52.546473478922	1.002
17	170756	52.596473478922	1.002
17	170810	52.646473478922	1.002
17	171132	52.696473478922	1.002
17	171186	52.746473478922	1.002
17	171508	52.796473478922	1.002
17	171562	52.846473478922	1.002
17	171884	52.896473478922	1.002
17	171938	52.946473478922	1.002
17	172260	52.996473478922	1.002
17	172314	53.046473478922	1.002
17	172631	53.096473478922	1.002
17	172685	53.146473478922	1.002
17	173007	53.196473478922	1.002
17	173061	53.246473478922	1.002
17	173378	53.296473478922	1.002
17	173432	53.346473478922	1.002
17	173743	53.396473478922	1.002
17	173797	53.446473478922	1.002
17	174130	53.496473478922	1.002
17	174184	53.546473478922	1.002
17	174506	53.596473478922	1.002
17	174560	53.646473478922	1.002
17	174893	53.696473478922	1.002
17	174947	53.746473478922	1.002
17	175264	53.796473478922	1.002
17	175318	53.846473478922	1.002
17	175635	53.896473478922	1.002
17	175689	53.946473478922	1.002
17	176022	53.996473478922	1.002
17	176076	54.046473478922	1.002
17	176409	54.096473478922	1.002
17	176463	54.146473478922	1.002
17	176796	54.196473478922	1.002
17	176850	54.246473478922	1.002
17	177183	54.296473478922	1.002
17	177237	54.346473478922	1.002
17	177554	54.396473478922	1.002
17	177608	54.446473478922	1.002
17	177941	54.496473478922	1.002
17	177995	54.546473478922	1.002
17	178344	54.596473478922	1.002
17	178398	54.646473478922	1.002
17	178720	54.696473478922	1.002
17	178774	54.746473478922	1.002
17	179096	54.796473478922	1.002
17	179150	54.846473478922	1.002
17	179483	54.896473478922	1.002
17	179537	54.946473478922	1.002
17	179870	54.996473478922	1.002
17	179924	55.046473478922	1.002
17	180241	55.096473478922	1.002
17	180295	55.146473478922	1.002
17	180628	55.196473478922	1.002
17	180682	55.246473478922	1.002
17	181004	55.296473478922	1.002
17	181058	55.346473478922	1.002
17	181391	55.396473478922	1.002
17	181445	55.446473478922	1.002
17	181778	55.496473478922	1.002
17	181832	55.546473478922	1.002
17	182165	55.596473478922	1.002
17	182219	55.646473478922	1.002
17	182552	55.696473478922	1.002
17	182606	55.746473478922	1.002
17	182917	55.796473478922	1.002
17	182971	55.846473478922	1.002
17	183293	55.896473478922	1.002
17	183347	55.946473478922	1.002
17	183696	55.996473478922	1.002
17	183750	56.046473478922	1.002
17	184067	56.096473478922	1.002
17	184121	56.146473478922	1.002
17	184443	56.196473478922	1.002
17	184497	56.246473478922	1.002
17	184830	56.296473478922	1.002
17	184884	56.346473478922	1.002
17	185217	56.396473478922	1.002
17	185271	56.446473478922	1.002
17	185604	56.496473478922	1.002
17	185658	56.546473478922	1.002
17	185980	56.596473478922	1.002
17	186034	56.646473478922	1.002
17	186351	56.696473478922	1.002
17	186405	56.746473478922	1.002
17	186727	56.796473478922	1.002
17	186781	56.846473478922	1.002
17	187114	56.896473478922	1.002
17	187168	56.946473478922	1.002
17	187501	56.996473478922	1.002
17	187555	57.046473478922	1.002
17	187888	57.096473478922	1.002
17	187942	57.146473478922	1.002
17	188275	57.196473478922	1.002
17	188329	57.246473478922	1.002
17	188640	57.296473478922	1.002
17	188694	57.346473478922	1.002
17	189011	57.396473478922	1.002
17	189065	57.446473478922	1.002
17	189414	57.496473478922	1.002
17	189468	57.546473478922	1.002
17	189801	57.596473478922	1.002
17	189855	57.646473478922	1.002
17	190188	57.696473478922	1.002
17	190242	57.746473478922	1.002
17	190591	57.796473478922	1.002
17	190645	57.846473478922	1.002
17	190978	57.896473478922	1.002
17	191032	57.946473478922	1.002
17	191365	57.996473478922	1.002
17	191419	58.046473478922	1.002
17	191752	58.096473478922	1.002
17	191806	58.146473478922	1.002
17	192139	58.196473478922	1.002
17	192193	58.246473478922	1.002
17	192526	58.296473478922	1.002
17	192580	58.346473478922	1.002
17	192929	58.396473478922	1.002
17	192983	58.446473478922	1.002
17	193316	58.496473478922	1.002
17	193370	58.546473478922	1.002
17	193687	58.596473478922	1.002
17	193741	58.646473478922	1.002
17	194074	58.696473478922	1.002
17	194128	58.746473478922	1.002
17	194477	58.796473478922	1.002
17	194531	58.846473478922	1.002
17	194864	58.896473478922	1.002
17	194918	58.946473478922	1.002
17	195267	58.996473478922	1.002
17	195321	59.046473478922	1.002
17	195654	59.096473478922	1.002
17	195708	59.146473478922	1.002
17	196030	59.196473478922	1.002
17	196084	59.246473478922	1.002
17	196433	59.296473478922	1.002
17	196487	59.346473478922	1.002
17	196820	59.396473478922	1.002
17	196874	59.446473478922	1.002
17	197207	59.496473478922	1.002
17	197261	59.546473478922	1.002
17	197594	59.596473478922	1.002
17	197648	59.646473478922	1.002
17	197981	59.696473478922	1.002
17	198035	59.746473478922	1.002
17	198352	59.796473478922	1.002
17	198406	59.846473478922	1.002
17	198739	59.896473478922	1.002
17	198793	59.946473478922	1.002
17	199110	59.996473478922	1.002
17	199164	60.046473478922	1.002
17	199486	60.096473478922	1.002
17	199540	60.146473478922	1.002
17	199873	60.196473478922	1.002
17	199927	60.246473478922	1.002
17	200260	60.296473478922	1.002
17	200314	60.346473478922	1.002
17	200663	60.396473478922	1.002
17	200717	60.446473478922	1.002
17	201034	60.496473478922	1.002
17	201088	60.546473478922	1.002
17	201421	60.596473478922	1.002
17	201475	60.646473478922	1.002
17	201824	60.696473478922	1.002
17	201878	60.746473478922	1.002
17	202211	60.796473478922	1.002
17	202265	60.846473478922	1.002
17	202598	60.896473478922	1.002
17	202652	60.946473478922	1.002
17	202969	60.996473478922	1.002
17	203023	61.046473478922	1.002
17	203356	61.096473478922	1.002
17	203410	61.146473478922	1.002
17	203743	61.196473478922	1.002
17	203797	61.246473478922	1.002
17	204130	61.296473478922	1.002
17	204184	61.346473478922	1.002
17	204517	61.396473478922	1.002
17	204571	61.446473478922	1.002
17	204904	61.496473478922	1.002
16	47	0.996473478922	1
16	65	1.046473478922	2
16	82	1.096473478922	3
16	100	1.146473478922	4
16	117	1.196473478922	5
16	135	1.246473478922	6
16	152	1.296473478922	7
16	170	1.346473478922	8
16	187	1.396473478922	9
16	205	1.446473478922	10
16	222	1.496473478922	11
16	240	1.546473478922	12
16	257	1.596473478922	13
16	275	1.646473478922	14
16	292	1.696473478922	15
16	310	1.746473478922	16
16	327	1.796473478922	17
16	345	1.846473478922	18
16	362	1.896473478922	19
16	380	1.946473478922	20
16	397	1.996473478922	21
16	415	2.046473478922	22
16	432	2.096473478922	23
16	450	2.146473478922	24
16	467	2.196473478922	25
16	485	2.246473478922	26
16	502	2.296473478922	27
16	520	2.346473478922	28
16	537	2.396473478922	29
16	555	2.446473478922	30
16	572	2.496473478922	31
16	590	2.546473478922	32
16	607	2.596473478922	33
16	625	2.646473478922	34
16	642	2.696473478922	35
16	660	2.746473478922	36
16	677	2.796473478922	37
16	695	2.846473478922	38
16	712	2.896473478922	39
16	730	2.946473478922	40
16	747	2.996473478922	41
16	765	3.046473478922	42
16	782	3.096473478922	43
16	800	3.146473478922	44
16	824	3.196473478922	45
16	849	3.246473478922	46
16	873	3.296473478922	47
16	898	3.346473478922	48
16	922	3.396473478922	49
16	947	3.446473478922	50
16	971	3.496473478922	51
16	996	3.546473478922	52
16	1020	3.596473478922	53
16	1045	3.646473478922	54
16	1069	3.696473478922	55
16	1094	3.746473478922	56
16	1118	3.796473478922	57
16	1143	3.846473478922	58
16	1167	3.896473478922	59
16	1192	3.946473478922	60
16	1216	3.996473478922	61
16	1241	4.046473478922	62
16	1286	4.096473478922	64
16	1313	4.146473478922	66
16	1377	4.196473478922	68
16	1404	4.246473478922	70
16	1468	4.296473478922	72
16	1495	4.346473478922	74
16	1559	4.396473478922	76
16	1586	4.446473478922	78
16	1650	4.496473478922	80
16	1677	4.546473478922	82
16	1741	4.596473478922	84
16	1768	4.646473478922	86
16	1832	4.696473478922	88
16	1859	4.746473478922	90
16	1923	4.796473478922	92
16	1950	4.846473478922	94
16	2014	4.896473478922	96
16	2041	4.946473478922	98
16	2105	4.996473478922	100
16	2132	5.046473478922	102
16	2196	5.096473478922	104
16	2223	5.146473478922	106
16	2287	5.196473478922	108
16	2314	5.246473478922	110
16	2378	5.296473478922	112
16	2405	5.346473478922	114
16	2469	5.396473478922	116
16	2496	5.446473478922	118
16	2560	5.496473478922	120
16	2587	5.546473478922	122
16	2651	5.596473478922	124
16	2678	5.646473478922	126
16	2742	5.696473478922	128
16	2769	5.746473478922	130
16	2833	5.796473478922	132
16	2860	5.846473478922	134
16	2924	5.896473478922	136
16	2951	5.946473478922	138
16	3015	5.996473478922	140
16	3042	6.046473478922	142
16	3106	6.096473478922	144
16	3133	6.146473478922	146
16	3216	6.196473478922	148
16	3250	6.246473478922	150
16	3333	6.296473478922	152
16	3367	6.346473478922	154
16	3450	6.396473478922	156
16	3484	6.446473478922	158
16	3567	6.496473478922	160
16	3601	6.546473478922	162
16	3684	6.596473478922	164
16	3718	6.646473478922	166
16	3801	6.696473478922	168
16	3835	6.746473478922	170
16	3918	6.796473478922	172
16	3952	6.846473478922	174
16	4035	6.896473478922	176
16	4069	6.946473478922	178
16	4179	6.996473478922	181
16	4215	7.046473478922	184
16	4350	7.096473478922	187
16	4386	7.146473478922	190
16	4521	7.196473478922	193
16	4557	7.246473478922	196
16	4682	7.296473478922	199
16	4718	7.346473478922	202
16	4853	7.396473478922	205
16	4889	7.446473478922	208
16	5014	7.496473478922	211
16	5050	7.546473478922	214
16	5185	7.596473478922	217
16	5221	7.646473478922	220
16	5356	7.696473478922	223
16	5392	7.746473478922	226
16	5527	7.796473478922	229
16	5563	7.846473478922	232
16	5698	7.896473478922	235
16	5734	7.946473478922	238
16	5869	7.996473478922	241
16	5905	8.046473478922	244
16	6040	8.096473478922	247
16	6076	8.146473478922	250
16	6211	8.196473478922	253
16	6247	8.246473478922	256
16	6382	8.296473478922	259
16	6418	8.346473478922	262
16	6553	8.396473478922	265
16	6589	8.446473478922	268
16	6714	8.496473478922	271
16	6750	8.546473478922	274
16	6885	8.596473478922	277
16	6921	8.646473478922	280
16	7056	8.696473478922	283
16	7092	8.746473478922	286
16	7227	8.796473478922	289
16	7263	8.846473478922	292
16	7398	8.896473478922	295
16	7434	8.946473478922	298
16	7569	8.996473478922	301
16	7605	9.046473478922	304
16	7730	9.096473478922	307
16	7766	9.146473478922	310
16	7965	9.196473478922	314
16	8010	9.246473478922	318
16	8240	9.296473478922	322
16	8285	9.346473478922	326
16	8493	9.396473478922	330
16	8538	9.446473478922	334
16	8746	9.496473478922	338
16	8791	9.546473478922	342
16	9021	9.596473478922	346
16	9066	9.646473478922	350
16	9296	9.696473478922	354
16	9341	9.746473478922	358
16	9571	9.796473478922	362
16	9616	9.846473478922	366
16	9833	9.896473478922	370
16	9878	9.946473478922	374
16	10095	9.996473478922	378
16	10140	10.046473478922	382
16	10370	10.096473478922	386
16	10415	10.146473478922	390
16	10632	10.196473478922	394
16	10677	10.246473478922	398
16	10894	10.296473478922	402
16	10939	10.346473478922	406
16	11156	10.396473478922	410
16	11201	10.446473478922	414
16	11418	10.496473478922	418
16	11463	10.546473478922	422
16	11680	10.596473478922	426
16	11725	10.646473478922	430
16	11942	10.696473478922	434
16	11987	10.746473478922	438
16	12204	10.796473478922	442
16	12249	10.846473478922	446
16	12466	10.896473478922	450
16	12511	10.946473478922	454
16	12728	10.996473478922	458
16	12773	11.046473478922	462
16	13003	11.096473478922	466
16	13048	11.146473478922	470
16	13278	11.196473478922	474
16	13323	11.246473478922	478
16	13553	11.296473478922	482
16	13598	11.346473478922	486
16	13815	11.396473478922	490
16	13860	11.446473478922	494
16	14077	11.496473478922	498
16	14122	11.546473478922	502
16	14352	11.596473478922	506
16	14397	11.646473478922	510
16	14614	11.696473478922	514
16	14659	11.746473478922	518
16	14889	11.796473478922	522
16	14934	11.846473478922	526
16	15164	11.896473478922	530
16	15209	11.946473478922	534
16	15426	11.996473478922	538
16	15471	12.046473478922	542
16	15688	12.096473478922	546
16	15733	12.146473478922	550
16	15990	12.196473478922	554
16	16042	12.246473478922	558
16	16299	12.296473478922	562
16	16351	12.346473478922	566
16	16624	12.396473478922	570
16	16676	12.446473478922	574
16	16949	12.496473478922	578
16	17001	12.546473478922	582
16	17258	12.596473478922	586
16	17310	12.646473478922	590
16	17567	12.696473478922	594
16	17619	12.746473478922	598
16	17915	12.796473478922	603
16	17969	12.846473478922	608
16	18291	12.896473478922	613
16	18345	12.946473478922	618
16	18662	12.996473478922	623
16	18716	13.046473478922	628
16	19049	13.096473478922	633
16	19103	13.146473478922	638
16	19436	13.196473478922	643
16	19490	13.246473478922	648
16	19823	13.296473478922	653
16	19877	13.346473478922	658
16	20194	13.396473478922	663
16	20248	13.446473478922	668
16	20570	13.496473478922	673
16	20624	13.546473478922	678
16	20946	13.596473478922	683
16	21000	13.646473478922	688
16	21333	13.696473478922	693
16	21387	13.746473478922	698
16	21720	13.796473478922	703
16	21774	13.846473478922	708
16	22123	13.896473478922	713
16	22177	13.946473478922	718
16	22499	13.996473478922	723
16	22553	14.046473478922	728
16	22902	14.096473478922	733
16	22956	14.146473478922	738
16	23289	14.196473478922	743
16	23343	14.246473478922	748
16	23692	14.296473478922	753
16	23746	14.346473478922	758
16	24095	14.396473478922	763
16	24149	14.446473478922	768
16	24466	14.496473478922	773
16	24520	14.546473478922	778
16	24853	14.596473478922	783
16	24907	14.646473478922	788
16	25240	14.696473478922	793
16	25294	14.746473478922	798
16	25643	14.796473478922	803
16	25697	14.846473478922	808
16	26014	14.896473478922	813
16	26068	14.946473478922	818
16	26390	14.996473478922	823
16	26444	15.046473478922	828
16	26766	15.096473478922	833
16	26820	15.146473478922	838
16	27153	15.196473478922	843
16	27207	15.246473478922	848
16	27540	15.296473478922	853
16	27594	15.346473478922	858
16	27927	15.396473478922	863
16	27981	15.446473478922	868
16	28298	15.496473478922	873
16	28352	15.546473478922	878
16	28669	15.596473478922	883
16	28723	15.646473478922	888
16	29045	15.696473478922	893
16	29099	15.746473478922	898
16	29416	15.796473478922	903
16	29470	15.846473478922	908
16	29803	15.896473478922	913
16	29857	15.946473478922	918
16	30190	15.996473478922	923
16	30244	16.046473478922	928
16	30577	16.096473478922	933
16	30631	16.146473478922	938
16	30964	16.196473478922	943
16	31018	16.246473478922	948
16	31335	16.296473478922	953
16	31389	16.346473478922	958
16	31722	16.396473478922	963
16	31776	16.446473478922	968
16	32109	16.496473478922	973
16	32163	16.546473478922	978
16	32512	16.596473478922	983
16	32566	16.646473478922	988
16	32888	16.696473478922	993
16	32942	16.746473478922	998
16	33264	16.796473478922	1003
16	33318	16.846473478922	1008
16	33651	16.896473478922	1013
16	33705	16.946473478922	1018
16	34038	16.996473478922	1023
16	34092	17.046473478922	1028
16	34425	17.096473478922	1033
16	34479	17.146473478922	1038
16	34812	17.196473478922	1043
16	34866	17.246473478922	1048
16	35199	17.296473478922	1053
16	35253	17.346473478922	1058
16	35586	17.396473478922	1063
16	35640	17.446473478922	1068
16	35973	17.496473478922	1073
16	36027	17.546473478922	1078
16	36349	17.596473478922	1083
16	36403	17.646473478922	1088
16	36720	17.696473478922	1093
16	36774	17.746473478922	1098
16	37096	17.796473478922	1103
16	37150	17.846473478922	1108
16	37499	17.896473478922	1113
16	37553	17.946473478922	1118
16	37886	17.996473478922	1123
16	37940	18.046473478922	1128
16	38262	18.096473478922	1133
16	38316	18.146473478922	1138
16	38665	18.196473478922	1143
16	38719	18.246473478922	1148
16	39036	18.296473478922	1153
16	39090	18.346473478922	1158
16	39439	18.396473478922	1163
16	39493	18.446473478922	1168
16	39826	18.496473478922	1173
16	39880	18.546473478922	1178
16	40213	18.596473478922	1183
16	40267	18.646473478922	1188
16	40600	18.696473478922	1193
16	40654	18.746473478922	1198
16	40987	18.796473478922	1203
16	41041	18.846473478922	1208
16	41390	18.896473478922	1213
16	41444	18.946473478922	1218
16	41793	18.996473478922	1223
16	41847	19.046473478922	1228
16	42169	19.096473478922	1233
16	42223	19.146473478922	1238
16	42556	19.196473478922	1243
16	42610	19.246473478922	1248
16	42943	19.296473478922	1253
16	42997	19.346473478922	1258
16	43330	19.396473478922	1263
16	43384	19.446473478922	1268
16	43701	19.496473478922	1273
16	43755	19.546473478922	1278
16	44072	19.596473478922	1283
16	44126	19.646473478922	1288
16	44459	19.696473478922	1293
16	44513	19.746473478922	1298
16	44824	19.796473478922	1303
16	44878	19.846473478922	1308
16	45211	19.896473478922	1313
16	45265	19.946473478922	1318
16	45614	19.996473478922	1323
16	45668	20.046473478922	1328
16	45985	20.096473478922	1333
16	46039	20.146473478922	1338
16	46372	20.196473478922	1343
16	46426	20.246473478922	1348
16	46759	20.296473478922	1353
16	46813	20.346473478922	1358
16	47146	20.396473478922	1363
16	47200	20.446473478922	1368
16	47533	20.496473478922	1373
16	47587	20.546473478922	1378
16	47920	20.596473478922	1383
16	47974	20.646473478922	1388
16	48296	20.696473478922	1393
16	48350	20.746473478922	1398
16	48667	20.796473478922	1403
16	48721	20.846473478922	1408
16	49043	20.896473478922	1413
16	49097	20.946473478922	1418
16	49446	20.996473478922	1423
16	49500	21.046473478922	1428
16	49833	21.096473478922	1433
16	49887	21.146473478922	1438
16	50220	21.196473478922	1443
16	50274	21.246473478922	1448
16	50596	21.296473478922	1453
16	50650	21.346473478922	1458
16	50967	21.396473478922	1463
16	51021	21.446473478922	1468
16	51354	21.496473478922	1473
16	51408	21.546473478922	1478
16	51730	21.596473478922	1483
16	51784	21.646473478922	1488
16	52133	21.696473478922	1493
16	52187	21.746473478922	1498
16	52520	21.796473478922	1503
16	52574	21.846473478922	1508
16	52907	21.896473478922	1513
16	52961	21.946473478922	1518
16	53283	21.996473478922	1523
16	53337	22.046473478922	1528
16	53659	22.096473478922	1533
16	53713	22.146473478922	1538
16	54062	22.196473478922	1543
16	54116	22.246473478922	1548
16	54465	22.296473478922	1553
16	54519	22.346473478922	1558
16	54852	22.396473478922	1563
16	54906	22.446473478922	1568
16	55217	22.496473478922	1573
16	55271	22.546473478922	1578
16	55604	22.596473478922	1583
16	55658	22.646473478922	1588
16	55991	22.696473478922	1593
16	56045	22.746473478922	1598
16	56378	22.796473478922	1603
16	56432	22.846473478922	1608
16	56781	22.896473478922	1613
16	56835	22.946473478922	1618
16	57168	22.996473478922	1623
16	57222	23.046473478922	1628
16	57555	23.096473478922	1633
16	57609	23.146473478922	1638
16	57926	23.196473478922	1643
16	57980	23.246473478922	1648
16	58302	23.296473478922	1653
16	58356	23.346473478922	1658
16	58705	23.396473478922	1663
16	58759	23.446473478922	1668
16	59092	23.496473478922	1673
16	59146	23.546473478922	1678
16	59495	23.596473478922	1683
16	59549	23.646473478922	1688
16	59898	23.696473478922	1693
16	59952	23.746473478922	1698
16	60301	23.796473478922	1703
16	60355	23.846473478922	1708
16	60704	23.896473478922	1713
16	60758	23.946473478922	1718
16	61080	23.996473478922	1723
16	61134	24.046473478922	1728
16	61467	24.096473478922	1733
16	61521	24.146473478922	1738
16	61854	24.196473478922	1743
16	61908	24.246473478922	1748
16	62241	24.296473478922	1753
16	62295	24.346473478922	1758
16	62628	24.396473478922	1763
16	62682	24.446473478922	1768
16	63015	24.496473478922	1773
16	63069	24.546473478922	1778
16	63402	24.596473478922	1783
16	63456	24.646473478922	1788
16	63778	24.696473478922	1793
16	63832	24.746473478922	1798
16	64154	24.796473478922	1803
16	64208	24.846473478922	1808
16	64541	24.896473478922	1813
16	64595	24.946473478922	1818
16	64917	24.996473478922	1823
16	64971	25.046473478922	1828
16	65304	25.096473478922	1833
16	65358	25.146473478922	1838
16	65691	25.196473478922	1843
16	65745	25.246473478922	1848
16	66094	25.296473478922	1853
16	66148	25.346473478922	1858
16	66481	25.396473478922	1863
16	66535	25.446473478922	1868
16	66846	25.496473478922	1873
16	66900	25.546473478922	1878
16	67233	25.596473478922	1883
16	67287	25.646473478922	1888
16	67620	25.696473478922	1893
16	67674	25.746473478922	1898
16	68007	25.796473478922	1903
16	68061	25.846473478922	1908
16	68394	25.896473478922	1913
16	68448	25.946473478922	1918
16	68765	25.996473478922	1923
16	68819	26.046473478922	1928
16	69152	26.096473478922	1933
16	69206	26.146473478922	1938
16	69539	26.196473478922	1943
16	69593	26.246473478922	1948
16	69915	26.296473478922	1953
16	69969	26.346473478922	1958
16	70318	26.396473478922	1963
16	70372	26.446473478922	1968
16	70705	26.496473478922	1973
16	70759	26.546473478922	1978
16	71081	26.596473478922	1983
16	71135	26.646473478922	1988
16	71468	26.696473478922	1993
16	71522	26.746473478922	1998
16	71844	26.796473478922	2003
16	71898	26.846473478922	2008
16	72220	26.896473478922	2013
16	72274	26.946473478922	2018
16	72596	26.996473478922	2023
16	72650	27.046473478922	2028
16	72967	27.096473478922	2033
16	73021	27.146473478922	2038
16	73370	27.196473478922	2043
16	73424	27.246473478922	2048
16	73757	27.296473478922	2053
16	73811	27.346473478922	2058
16	74144	27.396473478922	2063
16	74198	27.446473478922	2068
16	74515	27.496473478922	2073
16	74569	27.546473478922	2078
16	74902	27.596473478922	2083
16	74956	27.646473478922	2088
16	75278	27.696473478922	2093
16	75332	27.746473478922	2098
16	75665	27.796473478922	2103
16	75719	27.846473478922	2108
16	76041	27.896473478922	2113
16	76095	27.946473478922	2118
16	76412	27.996473478922	2123
16	76466	28.046473478922	2128
16	76799	28.096473478922	2133
16	76853	28.146473478922	2138
16	77186	28.196473478922	2143
16	77240	28.246473478922	2148
16	77573	28.296473478922	2153
16	77627	28.346473478922	2158
16	77960	28.396473478922	2163
16	78014	28.446473478922	2168
16	78347	28.496473478922	2173
16	78401	28.546473478922	2178
16	78734	28.596473478922	2183
16	78788	28.646473478922	2188
16	79137	28.696473478922	2193
16	79191	28.746473478922	2198
16	79524	28.796473478922	2203
16	79578	28.846473478922	2208
16	79911	28.896473478922	2213
16	79965	28.946473478922	2218
16	80298	28.996473478922	2223
16	80352	29.046473478922	2228
16	80674	29.096473478922	2233
16	80728	29.146473478922	2238
16	81061	29.196473478922	2243
16	81115	29.246473478922	2248
16	81448	29.296473478922	2253
16	81502	29.346473478922	2258
16	81835	29.396473478922	2263
16	81889	29.446473478922	2268
16	82222	29.496473478922	2273
16	82276	29.546473478922	2278
16	82609	29.596473478922	2283
16	82663	29.646473478922	2288
16	82985	29.696473478922	2293
16	83039	29.746473478922	2298
16	83361	29.796473478922	2303
16	83415	29.846473478922	2308
16	83732	29.896473478922	2313
16	83786	29.946473478922	2318
16	84135	29.996473478922	2323
16	84189	30.046473478922	2328
16	84522	30.096473478922	2333
16	84576	30.146473478922	2338
16	84898	30.196473478922	2343
16	84952	30.246473478922	2348
16	85274	30.296473478922	2353
16	85328	30.346473478922	2358
16	85645	30.396473478922	2363
16	85699	30.446473478922	2368
16	86016	30.496473478922	2373
16	86070	30.546473478922	2378
16	86403	30.596473478922	2383
16	86457	30.646473478922	2388
16	86779	30.696473478922	2393
16	86833	30.746473478922	2398
16	87182	30.796473478922	2403
16	87236	30.846473478922	2408
16	87569	30.896473478922	2413
16	87623	30.946473478922	2418
16	87956	30.996473478922	2423
16	88010	31.046473478922	2428
16	88332	31.096473478922	2433
16	88386	31.146473478922	2438
16	88703	31.196473478922	2443
16	88757	31.246473478922	2448
16	89090	31.296473478922	2453
16	89144	31.346473478922	2458
16	89461	31.396473478922	2463
16	89515	31.446473478922	2468
16	89832	31.496473478922	2473
16	89886	31.546473478922	2478
16	90208	31.596473478922	2483
16	90262	31.646473478922	2488
16	90579	31.696473478922	2493
16	90633	31.746473478922	2498
16	90966	31.796473478922	2503
16	91020	31.846473478922	2508
16	91342	31.896473478922	2513
16	91396	31.946473478922	2518
16	91745	31.996473478922	2523
16	91799	32.046473478922	2528
16	92121	32.096473478922	2533
16	92175	32.146473478922	2538
16	92497	32.196473478922	2543
16	92551	32.246473478922	2548
16	92900	32.296473478922	2553
16	92954	32.346473478922	2558
16	93287	32.396473478922	2563
16	93341	32.446473478922	2568
16	93663	32.496473478922	2573
16	93717	32.546473478922	2578
16	94050	32.596473478922	2583
16	94104	32.646473478922	2588
16	94421	32.696473478922	2593
16	94475	32.746473478922	2598
16	94808	32.796473478922	2603
16	94862	32.846473478922	2608
16	95195	32.896473478922	2613
16	95249	32.946473478922	2618
16	95566	32.996473478922	2623
16	95620	33.046473478922	2628
16	95953	33.096473478922	2633
16	96007	33.146473478922	2638
16	96340	33.196473478922	2643
16	96394	33.246473478922	2648
16	96743	33.296473478922	2653
16	96797	33.346473478922	2658
16	97130	33.396473478922	2663
16	97184	33.446473478922	2668
16	97506	33.496473478922	2673
16	97560	33.546473478922	2678
16	97893	33.596473478922	2683
16	97947	33.646473478922	2688
16	98280	33.696473478922	2693
16	98334	33.746473478922	2698
16	98667	33.796473478922	2703
16	98721	33.846473478922	2708
16	99054	33.896473478922	2713
16	99108	33.946473478922	2718
16	99441	33.996473478922	2723
16	99495	34.046473478922	2728
16	99828	34.096473478922	2733
16	99882	34.146473478922	2738
16	100215	34.196473478922	2743
16	100269	34.246473478922	2748
16	100591	34.296473478922	2753
16	100645	34.346473478922	2758
16	100978	34.396473478922	2763
16	101032	34.446473478922	2768
16	101349	34.496473478922	2773
16	101403	34.546473478922	2778
16	101736	34.596473478922	2783
16	101790	34.646473478922	2788
16	102123	34.696473478922	2793
16	102177	34.746473478922	2798
16	102510	34.796473478922	2803
16	102564	34.846473478922	2808
16	102886	34.896473478922	2813
16	102940	34.946473478922	2818
16	103273	34.996473478922	2823
16	103327	35.046473478922	2828
16	103660	35.096473478922	2833
16	103714	35.146473478922	2838
16	104025	35.196473478922	2843
16	104079	35.246473478922	2848
16	104412	35.296473478922	2853
16	104466	35.346473478922	2858
16	104799	35.396473478922	2863
16	104853	35.446473478922	2868
16	105186	35.496473478922	2873
16	105240	35.546473478922	2878
16	105589	35.596473478922	2883
16	105643	35.646473478922	2888
16	105976	35.696473478922	2893
16	106030	35.746473478922	2898
16	106363	35.796473478922	2903
16	106417	35.846473478922	2908
16	106766	35.896473478922	2913
16	106820	35.946473478922	2918
16	107169	35.996473478922	2923
16	107223	36.046473478922	2928
16	107540	36.096473478922	2933
16	107594	36.146473478922	2938
16	107927	36.196473478922	2943
16	107981	36.246473478922	2948
16	108314	36.296473478922	2953
16	108368	36.346473478922	2958
16	108690	36.396473478922	2963
16	108744	36.446473478922	2968
16	109077	36.496473478922	2973
16	109131	36.546473478922	2978
16	109464	36.596473478922	2983
16	109518	36.646473478922	2988
16	109851	36.696473478922	2993
16	109905	36.746473478922	2998
16	110238	36.796473478922	3003
16	110292	36.846473478922	3008
16	110625	36.896473478922	3013
16	110679	36.946473478922	3018
16	111012	36.996473478922	3023
16	111066	37.046473478922	3028
16	111399	37.096473478922	3033
16	111453	37.146473478922	3038
16	111786	37.196473478922	3043
16	111840	37.246473478922	3048
16	112173	37.296473478922	3053
16	112227	37.346473478922	3058
16	112560	37.396473478922	3063
16	112614	37.446473478922	3068
16	112947	37.496473478922	3073
16	113001	37.546473478922	3078
16	113334	37.596473478922	3083
16	113388	37.646473478922	3088
16	113721	37.696473478922	3093
16	113775	37.746473478922	3098
16	114108	37.796473478922	3103
16	114162	37.846473478922	3108
16	114495	37.896473478922	3113
16	114549	37.946473478922	3118
16	114882	37.996473478922	3123
16	114936	38.046473478922	3128
16	115269	38.096473478922	3133
16	115323	38.146473478922	3138
16	115634	38.196473478922	3143
16	115688	38.246473478922	3148
16	116021	38.296473478922	3153
16	116075	38.346473478922	3158
16	116392	38.396473478922	3163
16	116446	38.446473478922	3168
16	116779	38.496473478922	3173
16	116833	38.546473478922	3178
16	117166	38.596473478922	3183
16	117220	38.646473478922	3188
16	117553	38.696473478922	3193
16	117607	38.746473478922	3198
16	117929	38.796473478922	3203
16	117983	38.846473478922	3208
16	118316	38.896473478922	3213
16	118370	38.946473478922	3218
16	118692	38.996473478922	3223
16	118746	39.046473478922	3228
16	119068	39.096473478922	3233
16	119122	39.146473478922	3238
16	119455	39.196473478922	3243
16	119509	39.246473478922	3248
16	119842	39.296473478922	3253
16	119896	39.346473478922	3258
16	120213	39.396473478922	3263
16	120267	39.446473478922	3268
16	120589	39.496473478922	3273
16	120643	39.546473478922	3278
16	120976	39.596473478922	3283
16	121030	39.646473478922	3288
16	121363	39.696473478922	3293
16	121417	39.746473478922	3298
16	121750	39.796473478922	3303
16	121804	39.846473478922	3308
16	122137	39.896473478922	3313
16	122191	39.946473478922	3318
16	122524	39.996473478922	3323
16	122578	40.046473478922	3328
16	122911	40.096473478922	3333
16	122965	40.146473478922	3338
16	123298	40.196473478922	3343
16	123352	40.246473478922	3348
16	123685	40.296473478922	3353
16	123739	40.346473478922	3358
16	124072	40.396473478922	3363
16	124126	40.446473478922	3368
16	124448	40.496473478922	3373
16	124502	40.546473478922	3378
16	124835	40.596473478922	3383
16	124889	40.646473478922	3388
16	125211	40.696473478922	3393
16	125265	40.746473478922	3398
16	125582	40.796473478922	3403
16	125636	40.846473478922	3408
16	125969	40.896473478922	3413
16	126023	40.946473478922	3418
16	126356	40.996473478922	3423
16	126410	41.046473478922	3428
16	126732	41.096473478922	3433
16	126786	41.146473478922	3438
16	127119	41.196473478922	3443
16	127173	41.246473478922	3448
16	127506	41.296473478922	3453
16	127560	41.346473478922	3458
16	127882	41.396473478922	3463
16	127936	41.446473478922	3468
16	128253	41.496473478922	3473
16	128307	41.546473478922	3478
16	128640	41.596473478922	3483
16	128694	41.646473478922	3488
16	129027	41.696473478922	3493
16	129081	41.746473478922	3498
16	129430	41.796473478922	3503
16	129484	41.846473478922	3508
16	129801	41.896473478922	3513
16	129855	41.946473478922	3518
16	130172	41.996473478922	3523
16	130226	42.046473478922	3528
16	130559	42.096473478922	3533
16	130613	42.146473478922	3538
16	130935	42.196473478922	3543
16	130989	42.246473478922	3548
16	131306	42.296473478922	3553
16	131360	42.346473478922	3558
16	131677	42.396473478922	3563
16	131731	42.446473478922	3568
16	132080	42.496473478922	3573
16	132134	42.546473478922	3578
16	132467	42.596473478922	3583
16	132521	42.646473478922	3588
16	132843	42.696473478922	3593
16	132897	42.746473478922	3598
16	133219	42.796473478922	3603
16	133273	42.846473478922	3608
16	133606	42.896473478922	3613
16	133660	42.946473478922	3618
16	133993	42.996473478922	3623
16	134047	43.046473478922	3628
16	134380	43.096473478922	3633
16	134434	43.146473478922	3638
16	134767	43.196473478922	3643
16	134821	43.246473478922	3648
16	135138	43.296473478922	3653
16	135192	43.346473478922	3658
16	135514	43.396473478922	3663
16	135568	43.446473478922	3668
16	135890	43.496473478922	3673
16	135944	43.546473478922	3678
16	136277	43.596473478922	3683
16	136331	43.646473478922	3688
16	136664	43.696473478922	3693
16	136718	43.746473478922	3698
16	137051	43.796473478922	3703
16	137105	43.846473478922	3708
16	137438	43.896473478922	3713
16	137492	43.946473478922	3718
16	137809	43.996473478922	3723
16	137863	44.046473478922	3728
16	138185	44.096473478922	3733
16	138239	44.146473478922	3738
16	138572	44.196473478922	3743
16	138626	44.246473478922	3748
16	138959	44.296473478922	3753
16	139013	44.346473478922	3758
16	139335	44.396473478922	3763
16	139389	44.446473478922	3768
16	139722	44.496473478922	3773
16	139776	44.546473478922	3778
16	140109	44.596473478922	3783
16	140163	44.646473478922	3788
16	140496	44.696473478922	3793
16	140550	44.746473478922	3798
16	140883	44.796473478922	3803
16	140937	44.846473478922	3808
16	141254	44.896473478922	3813
16	141308	44.946473478922	3818
16	141641	44.996473478922	3823
16	141695	45.046473478922	3828
16	142028	45.096473478922	3833
16	142082	45.146473478922	3838
16	142415	45.196473478922	3843
16	142469	45.246473478922	3848
16	142786	45.296473478922	3853
16	142840	45.346473478922	3858
16	143173	45.396473478922	3863
16	143227	45.446473478922	3868
16	143560	45.496473478922	3873
16	143614	45.546473478922	3878
16	143947	45.596473478922	3883
16	144001	45.646473478922	3888
16	144334	45.696473478922	3893
16	144388	45.746473478922	3898
16	144721	45.796473478922	3903
16	144775	45.846473478922	3908
16	145108	45.896473478922	3913
16	145162	45.946473478922	3918
16	145495	45.996473478922	3923
16	145549	46.046473478922	3928
16	145866	46.096473478922	3933
16	145920	46.146473478922	3938
16	146253	46.196473478922	3943
16	146307	46.246473478922	3948
16	146640	46.296473478922	3953
16	146694	46.346473478922	3958
16	147016	46.396473478922	3963
16	147070	46.446473478922	3968
16	147403	46.496473478922	3973
16	147457	46.546473478922	3978
16	147790	46.596473478922	3983
16	147844	46.646473478922	3988
16	148161	46.696473478922	3993
16	148215	46.746473478922	3998
16	148537	46.796473478922	4003
16	148591	46.846473478922	4008
16	148908	46.896473478922	4013
16	148962	46.946473478922	4018
16	149295	46.996473478922	4023
16	149349	47.046473478922	4028
16	149682	47.096473478922	4033
16	149736	47.146473478922	4038
16	150053	47.196473478922	4043
16	150107	47.246473478922	4048
16	150440	47.296473478922	4053
16	150494	47.346473478922	4058
16	150816	47.396473478922	4063
16	150870	47.446473478922	4068
16	151203	47.496473478922	4073
16	151257	47.546473478922	4078
16	151590	47.596473478922	4083
16	151644	47.646473478922	4088
16	151977	47.696473478922	4093
16	152031	47.746473478922	4098
16	152348	47.796473478922	4103
16	152402	47.846473478922	4108
16	152724	47.896473478922	4113
16	152778	47.946473478922	4118
16	153111	47.996473478922	4123
16	153165	48.046473478922	4128
16	153487	48.096473478922	4133
16	153541	48.146473478922	4138
16	153890	48.196473478922	4143
16	153944	48.246473478922	4148
16	154277	48.296473478922	4153
16	154331	48.346473478922	4158
16	154664	48.396473478922	4163
16	154718	48.446473478922	4168
16	155051	48.496473478922	4173
16	155105	48.546473478922	4178
16	155427	48.596473478922	4183
16	155481	48.646473478922	4188
16	155814	48.696473478922	4193
16	155868	48.746473478922	4198
16	156201	48.796473478922	4203
16	156255	48.846473478922	4208
16	156588	48.896473478922	4213
16	156642	48.946473478922	4218
16	156975	48.996473478922	4223
16	157029	49.046473478922	4228
16	157362	49.096473478922	4233
16	157416	49.146473478922	4238
16	157749	49.196473478922	4243
16	157803	49.246473478922	4248
16	158120	49.296473478922	4253
16	158174	49.346473478922	4258
16	158507	49.396473478922	4263
16	158561	49.446473478922	4268
16	158894	49.496473478922	4273
16	158948	49.546473478922	4278
16	159270	49.596473478922	4283
16	159324	49.646473478922	4288
16	159673	49.696473478922	4293
16	159727	49.746473478922	4298
16	160060	49.796473478922	4303
16	160114	49.846473478922	4308
16	160447	49.896473478922	4313
16	160501	49.946473478922	4318
16	160823	49.996473478922	4323
16	160877	50.046473478922	4328
16	161199	50.096473478922	4333
16	161253	50.146473478922	4338
16	161602	50.196473478922	4343
16	161656	50.246473478922	4348
16	161989	50.296473478922	4353
16	162043	50.346473478922	4358
16	162376	50.396473478922	4363
16	162430	50.446473478922	4368
16	162752	50.496473478922	4373
16	162806	50.546473478922	4378
16	163123	50.596473478922	4383
16	163177	50.646473478922	4388
16	163494	50.696473478922	4393
16	163548	50.746473478922	4398
16	163881	50.796473478922	4403
16	163935	50.846473478922	4408
16	164268	50.896473478922	4413
16	164322	50.946473478922	4418
16	164655	50.996473478922	4423
16	164709	51.046473478922	4428
16	165042	51.096473478922	4433
16	165096	51.146473478922	4438
16	165413	51.196473478922	4443
16	165467	51.246473478922	4448
16	165800	51.296473478922	4453
16	165854	51.346473478922	4458
16	166187	51.396473478922	4463
16	166241	51.446473478922	4468
16	166574	51.496473478922	4473
16	166628	51.546473478922	4478
16	166961	51.596473478922	4483
16	167015	51.646473478922	4488
16	167337	51.696473478922	4493
16	167391	51.746473478922	4498
16	167708	51.796473478922	4503
16	167762	51.846473478922	4508
16	168079	51.896473478922	4513
16	168133	51.946473478922	4518
16	168466	51.996473478922	4523
16	168520	52.046473478922	4528
16	168853	52.096473478922	4533
16	168907	52.146473478922	4538
16	169240	52.196473478922	4543
16	169294	52.246473478922	4548
16	169627	52.296473478922	4553
16	169681	52.346473478922	4558
16	169998	52.396473478922	4563
16	170052	52.446473478922	4568
16	170385	52.496473478922	4573
16	170439	52.546473478922	4578
16	170756	52.596473478922	4583
16	170810	52.646473478922	4588
16	171132	52.696473478922	4593
16	171186	52.746473478922	4598
16	171508	52.796473478922	4603
16	171562	52.846473478922	4608
16	171884	52.896473478922	4613
16	171938	52.946473478922	4618
16	172260	52.996473478922	4623
16	172314	53.046473478922	4628
16	172631	53.096473478922	4633
16	172685	53.146473478922	4638
16	173007	53.196473478922	4643
16	173061	53.246473478922	4648
16	173378	53.296473478922	4653
16	173432	53.346473478922	4658
16	173743	53.396473478922	4663
16	173797	53.446473478922	4668
16	174130	53.496473478922	4673
16	174184	53.546473478922	4678
16	174506	53.596473478922	4683
16	174560	53.646473478922	4688
16	174893	53.696473478922	4693
16	174947	53.746473478922	4698
16	175264	53.796473478922	4703
16	175318	53.846473478922	4708
16	175635	53.896473478922	4713
16	175689	53.946473478922	4718
16	176022	53.996473478922	4723
16	176076	54.046473478922	4728
16	176409	54.096473478922	4733
16	176463	54.146473478922	4738
16	176796	54.196473478922	4743
16	176850	54.246473478922	4748
16	177183	54.296473478922	4753
16	177237	54.346473478922	4758
16	177554	54.396473478922	4763
16	177608	54.446473478922	4768
16	177941	54.496473478922	4773
16	177995	54.546473478922	4778
16	178344	54.596473478922	4783
16	178398	54.646473478922	4788
16	178720	54.696473478922	4793
16	178774	54.746473478922	4798
16	179096	54.796473478922	4803
16	179150	54.846473478922	4808
16	179483	54.896473478922	4813
16	179537	54.946473478922	4818
16	179870	54.996473478922	4823
16	179924	55.046473478922	4828
16	180241	55.096473478922	4833
16	180295	55.146473478922	4838
16	180628	55.196473478922	4843
16	180682	55.246473478922	4848
16	181004	55.296473478922	4853
16	181058	55.346473478922	4858
16	181391	55.396473478922	4863
16	181445	55.446473478922	4868
16	181778	55.496473478922	4873
16	181832	55.546473478922	4878
16	182165	55.596473478922	4883
16	182219	55.646473478922	4888
16	182552	55.696473478922	4893
16	182606	55.746473478922	4898
16	182917	55.796473478922	4903
16	182971	55.846473478922	4908
16	183293	55.896473478922	4913
16	183347	55.946473478922	4918
16	183696	55.996473478922	4923
16	183750	56.046473478922	4928
16	184067	56.096473478922	4933
16	184121	56.146473478922	4938
16	184443	56.196473478922	4943
16	184497	56.246473478922	4948
16	184830	56.296473478922	4953
16	184884	56.346473478922	4958
16	185217	56.396473478922	4963
16	185271	56.446473478922	4968
16	185604	56.496473478922	4973
16	185658	56.546473478922	4978
16	185980	56.596473478922	4983
16	186034	56.646473478922	4988
16	186351	56.696473478922	4993
16	186405	56.746473478922	4998
16	186727	56.796473478922	5003
16	186781	56.846473478922	5008
16	187114	56.896473478922	5013
16	187168	56.946473478922	5018
16	187501	56.996473478922	5023
16	187555	57.046473478922	5028
16	187888	57.096473478922	5033
16	187942	57.146473478922	5038
16	188275	57.196473478922	5043
16	188329	57.246473478922	5048
16	188640	57.296473478922	5053
16	188694	57.346473478922	5058
16	189011	57.396473478922	5063
16	189065	57.446473478922	5068
16	189414	57.496473478922	5073
16	189468	57.546473478922	5078
16	189801	57.596473478922	5083
16	189855	57.646473478922	5088
16	190188	57.696473478922	5093
16	190242	57.746473478922	5098
16	190591	57.796473478922	5103
16	190645	57.846473478922	5108
16	190978	57.896473478922	5113
16	191032	57.946473478922	5118
16	191365	57.996473478922	5123
16	191419	58.046473478922	5128
16	191752	58.096473478922	5133
16	191806	58.146473478922	5138
16	192139	58.196473478922	5143
16	192193	58.246473478922	5148
16	192526	58.296473478922	5153
16	192580	58.346473478922	5158
16	192929	58.396473478922	5163
16	192983	58.446473478922	5168
16	193316	58.496473478922	5173
16	193370	58.546473478922	5178
16	193687	58.596473478922	5183
16	193741	58.646473478922	5188
16	194074	58.696473478922	5193
16	194128	58.746473478922	5198
16	194477	58.796473478922	5203
16	194531	58.846473478922	5208
16	194864	58.896473478922	5213
16	194918	58.946473478922	5218
16	195267	58.996473478922	5223
16	195321	59.046473478922	5228
16	195654	59.096473478922	5233
16	195708	59.146473478922	5238
16	196030	59.196473478922	5243
16	196084	59.246473478922	5248
16	196433	59.296473478922	5253
16	196487	59.346473478922	5258
16	196820	59.396473478922	5263
16	196874	59.446473478922	5268
16	197207	59.496473478922	5273
16	197261	59.546473478922	5278
16	197594	59.596473478922	5283
16	197648	59.646473478922	5288
16	197981	59.696473478922	5293
16	198035	59.746473478922	5298
16	198352	59.796473478922	5303
16	198406	59.846473478922	5308
16	198739	59.896473478922	5313
16	198793	59.946473478922	5318
16	199110	59.996473478922	5323
16	199164	60.046473478922	5328
16	199486	60.096473478922	5333
16	199540	60.146473478922	5338
16	199873	60.196473478922	5343
16	199927	60.246473478922	5348
16	200260	60.296473478922	5353
16	200314	60.346473478922	5358
16	200663	60.396473478922	5363
16	200717	60.446473478922	5368
16	201034	60.496473478922	5373
16	201088	60.546473478922	5378
16	201421	60.596473478922	5383
16	201475	60.646473478922	5388
16	201824	60.696473478922	5393
16	201878	60.746473478922	5398
16	202211	60.796473478922	5403
16	202265	60.846473478922	5408
16	202598	60.896473478922	5413
16	202652	60.946473478922	5418
16	202969	60.996473478922	5423
16	203023	61.046473478922	5428
16	203356	61.096473478922	5433
16	203410	61.146473478922	5438
16	203743	61.196473478922	5443
16	203797	61.246473478922	5448
16	204130	61.296473478922	5453
16	204184	61.346473478922	5458
16	204517	61.396473478922	5463
16	204571	61.446473478922	5468
16	204904	61.496473478922	5473
[...]
14	140927	44.800251984713	0.002
14	140943	44.850251984713	0.001
14	141298	44.900251984713	0.002
14	141314	44.950251984713	0.001
14	141685	45.000251984713	0.002
14	141701	45.050251984713	0.001
14	142072	45.100251984713	0.002
14	142088	45.150251984713	0.001
14	142459	45.200251984713	0.002
14	142475	45.250251984713	0.001
14	142830	45.300251984713	0.002
14	142846	45.350251984713	0.001
14	143217	45.400251984713	0.002
14	143233	45.450251984713	0.001
14	143604	45.500251984713	0.002
14	143620	45.550251984713	0.001
14	143991	45.600251984713	0.002
14	144007	45.650251984713	0.001
14	144378	45.700251984713	0.002
14	144394	45.750251984713	0.001
14	144765	45.800251984713	0.002
14	144781	45.850251984713	0.001
14	145152	45.900251984713	0.002
14	145168	45.950251984713	0.001
14	145539	46.000251984713	0.002
14	145555	46.050251984713	0.001
14	145910	46.100251984713	0.002
14	145926	46.150251984713	0.001
14	146297	46.200251984713	0.002
14	146313	46.250251984713	0.001
14	146684	46.300251984713	0.002
14	146700	46.350251984713	0.001
14	147060	46.400251984713	0.002
14	147076	46.450251984713	0.001
14	147447	46.500251984713	0.002
14	147463	46.550251984713	0.001
14	147834	46.600251984713	0.002
14	147850	46.650251984713	0.001
14	148205	46.700251984713	0.002
14	148221	46.750251984713	0.001
14	148581	46.800251984713	0.002
14	148597	46.850251984713	0.001
14	148952	46.900251984713	0.002
14	148968	46.950251984713	0.001
14	149339	47.000251984713	0.002
14	149355	47.050251984713	0.001
14	149726	47.100251984713	0.002
14	149742	47.150251984713	0.001
14	150097	47.200251984713	0.002
14	150113	47.250251984713	0.001
14	150484	47.300251984713	0.002
14	150500	47.350251984713	0.001
14	150860	47.400251984713	0.002
14	150876	47.450251984713	0.001
14	151247	47.500251984713	0.002
14	151263	47.550251984713	0.001
14	151634	47.600251984713	0.002
14	151650	47.650251984713	0.001
14	152021	47.700251984713	0.002
14	152037	47.750251984713	0.001
14	152392	47.800251984713	0.002
14	152408	47.850251984713	0.001
14	152768	47.900251984713	0.002
14	152784	47.950251984713	0.001
14	153155	48.000251984713	0.002
14	153171	48.050251984713	0.001
14	153531	48.100251984713	0.002
14	153547	48.150251984713	0.001
14	153934	48.200251984713	0.002
14	153950	48.250251984713	0.001
14	154321	48.300251984713	0.002
14	154337	48.350251984713	0.001
14	154708	48.400251984713	0.002
14	154724	48.450251984713	0.001
14	155095	48.500251984713	0.002
14	155111	48.550251984713	0.001
14	155471	48.600251984713	0.002
14	155487	48.650251984713	0.001
14	155858	48.700251984713	0.002
14	155874	48.750251984713	0.001
14	156245	48.800251984713	0.002
14	156261	48.850251984713	0.001
14	156632	48.900251984713	0.002
14	156648	48.950251984713	0.001
14	157019	49.000251984713	0.002
14	157035	49.050251984713	0.001
14	157406	49.100251984713	0.002
14	157422	49.150251984713	0.001
14	157793	49.200251984713	0.002
14	157809	49.250251984713	0.001
14	158164	49.300251984713	0.002
14	158180	49.350251984713	0.001
14	158551	49.400251984713	0.002
14	158567	49.450251984713	0.001
14	158938	49.500251984713	0.002
14	158954	49.550251984713	0.001
14	159314	49.600251984713	0.002
14	159330	49.650251984713	0.001
14	159717	49.700251984713	0.002
14	159733	49.750251984713	0.001
14	160104	49.800251984713	0.002
14	160120	49.850251984713	0.001
14	160491	49.900251984713	0.002
14	160507	49.950251984713	0.001
14	160867	50.000251984713	0.002
14	160883	50.050251984713	0.001
14	161243	50.100251984713	0.002
14	161259	50.150251984713	0.001
14	161646	50.200251984713	0.002
14	161662	50.250251984713	0.001
14	162033	50.300251984713	0.002
14	162049	50.350251984713	0.001
14	162420	50.400251984713	0.002
14	162436	50.450251984713	0.001
14	162796	50.500251984713	0.002
14	162812	50.550251984713	0.001
14	163167	50.600251984713	0.002
14	163183	50.650251984713	0.001
14	163538	50.700251984713	0.002
14	163554	50.750251984713	0.001
14	163925	50.800251984713	0.002
14	163941	50.850251984713	0.001
14	164312	50.900251984713	0.002
14	164328	50.950251984713	0.001
14	164699	51.000251984713	0.002
14	164715	51.050251984713	0.001
14	165086	51.100251984713	0.002
14	165102	51.150251984713	0.001
14	165457	51.200251984713	0.002
14	165473	51.250251984713	0.001
14	165844	51.300251984713	0.002
14	165860	51.350251984713	0.001
14	166231	51.400251984713	0.002
14	166247	51.450251984713	0.001
14	166618	51.500251984713	0.002
14	166634	51.550251984713	0.001
14	167005	51.600251984713	0.002
14	167021	51.650251984713	0.001
14	167381	51.700251984713	0.002
14	167397	51.750251984713	0.001
14	167752	51.800251984713	0.002
14	167768	51.850251984713	0.001
14	168123	51.900251984713	0.002
14	168139	51.950251984713	0.001
14	168510	52.000251984713	0.002
14	168526	52.050251984713	0.001
14	168897	52.100251984713	0.002
14	168913	52.150251984713	0.001
14	169284	52.200251984713	0.002
14	169300	52.250251984713	0.001
14	169671	52.300251984713	0.002
14	169687	52.350251984713	0.001
14	170042	52.400251984713	0.002
14	170058	52.450251984713	0.001
14	170429	52.500251984713	0.002
14	170445	52.550251984713	0.001
14	170800	52.600251984713	0.002
14	170816	52.650251984713	0.001
14	171176	52.700251984713	0.002
14	171192	52.750251984713	0.001
14	171552	52.800251984713	0.002
14	171568	52.850251984713	0.001
14	171928	52.900251984713	0.002
14	171944	52.950251984713	0.001
14	172304	53.000251984713	0.002
14	172320	53.050251984713	0.001
14	172675	53.100251984713	0.002
14	172691	53.150251984713	0.001
14	173051	53.200251984713	0.002
14	173067	53.250251984713	0.001
14	173422	53.300251984713	0.002
14	173438	53.350251984713	0.001
14	173787	53.400251984713	0.002
14	173803	53.450251984713	0.001
14	174174	53.500251984713	0.002
14	174190	53.550251984713	0.001
14	174550	53.600251984713	0.002
14	174566	53.650251984713	0.001
14	174937	53.700251984713	0.002
14	174953	53.750251984713	0.001
14	175308	53.800251984713	0.002
14	175324	53.850251984713	0.001
14	175679	53.900251984713	0.002
14	175695	53.950251984713	0.001
14	176066	54.000251984713	0.002
14	176082	54.050251984713	0.001
14	176453	54.100251984713	0.002
14	176469	54.150251984713	0.001
14	176840	54.200251984713	0.002
14	176856	54.250251984713	0.001
14	177227	54.300251984713	0.002
14	177243	54.350251984713	0.001
14	177598	54.400251984713	0.002
14	177614	54.450251984713	0.001
14	177985	54.500251984713	0.002
14	178001	54.550251984713	0.001
14	178388	54.600251984713	0.002
14	178404	54.650251984713	0.001
14	178764	54.700251984713	0.002
14	178780	54.750251984713	0.001
14	179140	54.800251984713	0.002
14	179156	54.850251984713	0.001
14	179527	54.900251984713	0.002
14	179543	54.950251984713	0.001
14	179914	55.000251984713	0.002
14	179930	55.050251984713	0.001
14	180285	55.100251984713	0.002
14	180301	55.150251984713	0.001
14	180672	55.200251984713	0.002
14	180688	55.250251984713	0.001
14	181048	55.300251984713	0.002
14	181064	55.350251984713	0.001
14	181435	55.400251984713	0.002
14	181451	55.450251984713	0.001
14	181822	55.500251984713	0.002
14	181838	55.550251984713	0.001
14	182209	55.600251984713	0.002
14	182225	55.650251984713	0.001
14	182596	55.700251984713	0.002
14	182612	55.750251984713	0.001
14	182961	55.800251984713	0.002
14	182977	55.850251984713	0.001
14	183337	55.900251984713	0.002
14	183353	55.950251984713	0.001
14	183740	56.000251984713	0.002
14	183756	56.050251984713	0.001
14	184111	56.100251984713	0.002
14	184127	56.150251984713	0.001
14	184487	56.200251984713	0.002
14	184503	56.250251984713	0.001
14	184874	56.300251984713	0.002
14	184890	56.350251984713	0.001
14	185261	56.400251984713	0.002
14	185277	56.450251984713	0.001
14	185648	56.500251984713	0.002
14	185664	56.550251984713	0.001
14	186024	56.600251984713	0.002
14	186040	56.650251984713	0.001
14	186395	56.700251984713	0.002
14	186411	56.750251984713	0.001
14	186771	56.800251984713	0.002
14	186787	56.850251984713	0.001
14	187158	56.900251984713	0.002
14	187174	56.950251984713	0.001
14	187545	57.000251984713	0.002
14	187561	57.050251984713	0.001
14	187932	57.100251984713	0.002
14	187948	57.150251984713	0.001
14	188319	57.200251984713	0.002
14	188335	57.250251984713	0.001
14	188684	57.300251984713	0.002
14	188700	57.350251984713	0.001
14	189055	57.400251984713	0.002
14	189071	57.450251984713	0.001
14	189458	57.500251984713	0.002
14	189474	57.550251984713	0.001
14	189845	57.600251984713	0.002
14	189861	57.650251984713	0.001
14	190232	57.700251984713	0.002
14	190248	57.750251984713	0.001
14	190635	57.800251984713	0.002
14	190651	57.850251984713	0.001
14	191022	57.900251984713	0.002
14	191038	57.950251984713	0.001
14	191409	58.000251984713	0.002
14	191425	58.050251984713	0.001
14	191796	58.100251984713	0.002
14	191812	58.150251984713	0.001
14	192183	58.200251984713	0.002
14	192199	58.250251984713	0.001
14	192570	58.300251984713	0.002
14	192586	58.350251984713	0.001
14	192973	58.400251984713	0.002
14	192989	58.450251984713	0.001
14	193360	58.500251984713	0.002
14	193376	58.550251984713	0.001
14	193731	58.600251984713	0.002
14	193747	58.650251984713	0.001
14	194118	58.700251984713	0.002
14	194134	58.750251984713	0.001
14	194521	58.800251984713	0.002
14	194537	58.850251984713	0.001
14	194908	58.900251984713	0.002
14	194924	58.950251984713	0.001
14	195311	59.000251984713	0.002
14	195327	59.050251984713	0.001
14	195698	59.100251984713	0.002
14	195714	59.150251984713	0.001
14	196074	59.200251984713	0.002
14	196090	59.250251984713	0.001
14	196477	59.300251984713	0.002
14	196493	59.350251984713	0.001
14	196864	59.400251984713	0.002
14	196880	59.450251984713	0.001
14	197251	59.500251984713	0.002
14	197267	59.550251984713	0.001
14	197638	59.600251984713	0.002
14	197654	59.650251984713	0.001
14	198025	59.700251984713	0.002
14	198041	59.750251984713	0.001
14	198396	59.800251984713	0.002
14	198412	59.850251984713	0.001
14	198783	59.900251984713	0.002
14	198799	59.950251984713	0.001
14	199154	60.000251984713	0.002
14	199170	60.050251984713	0.001
14	199530	60.100251984713	0.002
14	199546	60.150251984713	0.001
14	199917	60.200251984713	0.002
14	199933	60.250251984713	0.001
14	200304	60.300251984713	0.002
14	200320	60.350251984713	0.001
14	200707	60.400251984713	0.002
14	200723	60.450251984713	0.001
14	201078	60.500251984713	0.002
14	201094	60.550251984713	0.001
14	201465	60.600251984713	0.002
14	201481	60.650251984713	0.001
14	201868	60.700251984713	0.002
14	201884	60.750251984713	0.001
14	202255	60.800251984713	0.002
14	202271	60.850251984713	0.001
14	202642	60.900251984713	0.002
14	202658	60.950251984713	0.001
14	203013	61.000251984713	0.002
14	203029	61.050251984713	0.001
14	203400	61.100251984713	0.002
14	203416	61.150251984713	0.001
14	203787	61.200251984713	0.002
14	203803	61.250251984713	0.001
14	204174	61.300251984713	0.002
14	204190	61.350251984713	0.001
14	204561	61.400251984713	0.002
14	204577	61.450251984713	0.001
14	204947	61.500251984713	0.002
14	204960	61.550251984713	0.001
14	205222	61.600251984713	0.002
14	205235	61.650251984713	0.001
14	205484	61.700251984713	0.002
14	205497	61.750251984713	0.001
14	205759	61.800251984713	0.002
14	205772	61.850251984713	0.001
14	206021	61.900251984713	0.002
14	206034	61.950251984713	0.001
14	206296	62.000251984713	0.002
14	206309	62.050251984713	0.001
14	206549	62.100251984713	0.002
14	206562	62.150251984713	0.001
14	206824	62.200251984713	0.002
14	206837	62.250251984713	0.001
14	207077	62.300251984713	0.002
14	207090	62.350251984713	0.001
14	207352	62.400251984713	0.002
14	207365	62.450251984713	0.001
14	207614	62.500251984713	0.002
14	207627	62.550251984713	0.001
14	207876	62.600251984713	0.002
14	207889	62.650251984713	0.001
14	208138	62.700251984713	0.002
14	208151	62.750251984713	0.001
14	208400	62.800251984713	0.002
14	208413	62.850251984713	0.001
14	208662	62.900251984713	0.002
14	208675	62.950251984713	0.001
14	208924	63.000251984713	0.002
14	208937	63.050251984713	0.001
14	209186	63.100251984713	0.002
14	209199	63.150251984713	0.001
14	209448	63.200251984713	0.002
14	209461	63.250251984713	0.001
14	209723	63.300251984713	0.002
14	209736	63.350251984713	0.001
14	209998	63.400251984713	0.002
14	210011	63.450251984713	0.001
14	210273	63.500251984713	0.002
14	210286	63.550251984713	0.001
14	210535	63.600251984713	0.002
14	210548	63.650251984713	0.001
14	210810	63.700251984713	0.002
14	210823	63.750251984713	0.001
14	211072	63.800251984713	0.002
14	211085	63.850251984713	0.001
14	211347	63.900251984713	0.002
14	211360	63.950251984713	0.001
14	211600	64.000251984713	0.002
14	211613	64.050251984713	0.001
14	211853	64.100251984713	0.002
14	211866	64.150251984713	0.001
14	212115	64.200251984713	0.002
14	212128	64.250251984713	0.001
14	212377	64.300251984713	0.002
14	212390	64.350251984713	0.001
14	212639	64.400251984713	0.002
14	212652	64.450251984713	0.001
14	212914	64.500251984713	0.002
14	212927	64.550251984713	0.001
14	213176	64.600251984713	0.002
14	213189	64.650251984713	0.001
14	213450	64.700251984713	0.002
14	213460	64.750251984713	0.001
14	213611	64.800251984713	0.002
14	213621	64.850251984713	0.001
14	213772	64.900251984713	0.002
14	213782	64.950251984713	0.001
14	213933	65.000251984713	0.002
14	213943	65.050251984713	0.001
14	214094	65.100251984713	0.002
14	214104	65.150251984713	0.001
14	214255	65.200251984713	0.002
14	214265	65.250251984713	0.001
14	214416	65.300251984713	0.002
14	214426	65.350251984713	0.001
14	214577	65.400251984713	0.002
14	214587	65.450251984713	0.001
14	214738	65.500251984713	0.002
14	214748	65.550251984713	0.001
14	214909	65.600251984713	0.002
14	214919	65.650251984713	0.001
14	215070	65.700251984713	0.002
14	215080	65.750251984713	0.001
14	215241	65.800251984713	0.002
14	215251	65.850251984713	0.001
14	215412	65.900251984713	0.002
14	215422	65.950251984713	0.001
14	215583	66.000251984713	0.002
14	215593	66.050251984713	0.001
14	215754	66.100251984713	0.002
14	215764	66.150251984713	0.001
14	215915	66.200251984713	0.002
14	215925	66.250251984713	0.001
14	216086	66.300251984713	0.002
14	216096	66.350251984713	0.001
14	216247	66.400251984713	0.002
14	216257	66.450251984713	0.001
14	216418	66.500251984713	0.002
14	216428	66.550251984713	0.001
14	216579	66.600251984713	0.002
14	216589	66.650251984713	0.001
14	216750	66.700251984713	0.002
14	216760	66.750251984713	0.001
14	216921	66.800251984713	0.002
14	216931	66.850251984713	0.001
14	217092	66.900251984713	0.002
14	217102	66.950251984713	0.001
14	217263	67.000251984713	0.002
14	217273	67.050251984713	0.001
14	217424	67.100251984713	0.002
14	217434	67.150251984713	0.001
14	217585	67.200251984713	0.002
14	217595	67.250251984713	0.001
14	217756	67.300251984713	0.002
14	217766	67.350251984713	0.001
14	217927	67.400251984713	0.002
14	217937	67.450251984713	0.001
14	218098	67.500251984713	0.002
14	218108	67.550251984713	0.001
14	218268	67.600251984713	0.002
14	218275	67.650251984713	0.001
14	218359	67.700251984713	0.002
14	218366	67.750251984713	0.001
14	218450	67.800251984713	0.002
14	218457	67.850251984713	0.001
14	218541	67.900251984713	0.002
14	218548	67.950251984713	0.001
14	218632	68.000251984713	0.002
14	218639	68.050251984713	0.001
14	218723	68.100251984713	0.002
14	218730	68.150251984713	0.001
14	218814	68.200251984713	0.002
14	218821	68.250251984713	0.001
14	218905	68.300251984713	0.002
14	218912	68.350251984713	0.001
14	218996	68.400251984713	0.002
14	219003	68.450251984713	0.001
14	219087	68.500251984713	0.002
14	219094	68.550251984713	0.001
14	219178	68.600251984713	0.002
14	219185	68.650251984713	0.001
14	219269	68.700251984713	0.002
14	219276	68.750251984713	0.001
14	219360	68.800251984713	0.002
14	219367	68.850251984713	0.001
14	219451	68.900251984713	0.002
14	219458	68.950251984713	0.001
14	219542	69.000251984713	0.002
14	219549	69.050251984713	0.001
14	219633	69.100251984713	0.002
14	219640	69.150251984713	0.001
14	219724	69.200251984713	0.002
14	219731	69.250251984713	0.001
14	219815	69.300251984713	0.002
14	219822	69.350251984713	0.001
14	219906	69.400251984713	0.002
14	219913	69.450251984713	0.001
14	219997	69.500251984713	0.002
14	220004	69.550251984713	0.001
14	220088	69.600251984713	0.002
14	220095	69.650251984713	0.001
14	220179	69.700251984713	0.002
14	220186	69.750251984713	0.001
14	220270	69.800251984713	0.002
14	220277	69.850251984713	0.001
14	220361	69.900251984713	0.002
14	220368	69.950251984713	0.001
14	220452	70.000251984713	0.002
14	220459	70.050251984713	0.001
14	220543	70.100251984713	0.002
14	220550	70.150251984713	0.001
14	220634	70.200251984713	0.002
14	220641	70.250251984713	0.001
14	220725	70.300251984713	0.002
14	220732	70.350251984713	0.001
14	220816	70.400251984713	0.002
14	220823	70.450251984713	0.001
14	220907	70.500251984713	0.002
14	220914	70.550251984713	0.001
14	220998	70.600251984713	0.002
14	221005	70.650251984713	0.001
14	221089	70.700251984713	0.002
14	221093	70.750251984713	0.001
14	221124	70.800251984713	0.002
14	221128	70.850251984713	0.001
14	221159	70.900251984713	0.002
14	221163	70.950251984713	0.001
14	221194	71.000251984713	0.002
14	221198	71.050251984713	0.001
14	221229	71.100251984713	0.002
14	221233	71.150251984713	0.001
14	221264	71.200251984713	0.002
14	221268	71.250251984713	0.001
14	221299	71.300251984713	0.002
14	221303	71.350251984713	0.001
14	221334	71.400251984713	0.002
14	221338	71.450251984713	0.001
14	221369	71.500251984713	0.002
14	221373	71.550251984713	0.001
14	221404	71.600251984713	0.002
14	221408	71.650251984713	0.001
14	221439	71.700251984713	0.002
14	221443	71.750251984713	0.001
14	221474	71.800251984713	0.002
14	221478	71.850251984713	0.001
14	221509	71.900251984713	0.002
14	221513	71.950251984713	0.001
14	221544	72.000251984713	0.002
14	221548	72.050251984713	0.001
14	221579	72.100251984713	0.002
14	221583	72.150251984713	0.001
14	221614	72.200251984713	0.002
14	221618	72.250251984713	0.001
14	221649	72.300251984713	0.002
14	221653	72.350251984713	0.001
14	221684	72.400251984713	0.002
14	221688	72.450251984713	0.001
14	221719	72.500251984713	0.002
14	221723	72.550251984713	0.001
14	221754	72.600251984713	0.002
14	221758	72.650251984713	0.001
14	221789	72.700251984713	0.002
14	221793	72.750251984713	0.001
14	221824	72.800251984713	0.002
14	221828	72.850251984713	0.001
14	221859	72.900251984713	0.002
14	221863	72.950251984713	0.001
14	221894	73.000251984713	0.002
14	221898	73.050251984713	0.001
14	221929	73.100251984713	0.002
14	221933	73.150251984713	0.001
14	221964	73.200251984713	0.002
14	221968	73.250251984713	0.001
14	221999	73.300251984713	0.002
14	222003	73.350251984713	0.001
14	222034	73.400251984713	0.002
14	222038	73.450251984713	0.001
14	222069	73.500251984713	0.002
14	222073	73.550251984713	0.001
14	222104	73.600251984713	0.002
14	222108	73.650251984713	0.001
14	222138	73.700251984713	0.002
14	222139	73.750251984713	0.001
14	222140	73.800251984713	0.002
14	222141	73.850251984713	0.001
14	222142	73.900251984713	0.002
14	222143	73.950251984713	0.001
14	222144	74.000251984713	0.002
14	222145	74.050251984713	0.001
14	222146	74.100251984713	0.002
14	222147	74.150251984713	0.001
14	222148	74.200251984713	0.002
14	222149	74.250251984713	0.001
14	222150	74.300251984713	0.002
14	222151	74.350251984713	0.001
14	222152	74.400251984713	0.002
14	222153	74.450251984713	0.001
14	222154	74.500251984713	0.002
14	222155	74.550251984713	0.001
14	222156	74.600251984713	0.002
14	222157	74.650251984713	0.001
14	222158	74.700251984713	0.002
14	222159	74.750251984713	0.001
14	222160	74.800251984713	0.002
14	222161	74.850251984713	0.001
14	222162	74.900251984713	0.002
14	222163	74.950251984713	0.001
14	222164	75.000251984713	0.002
14	222165	75.050251984713	0.001
14	222166	75.100251984713	0.002
14	222167	75.150251984713	0.001
14	222168	75.200251984713	0.002
14	222169	75.250251984713	0.001
14	222170	75.300251984713	0.002
14	222171	75.350251984713	0.001
14	222172	75.400251984713	0.002
14	222173	75.450251984713	0.001
14	222174	75.500251984713	0.002
14	222175	75.550251984713	0.001
14	222176	75.600251984713	0.002
14	222177	75.650251984713	0.001
14	222178	75.700251984713	0.002
14	222179	75.750251984713	0.001
14	222180	75.800251984713	0.002
14	222181	75.850251984713	0.001
14	222182	75.900251984713	0.002
14	222183	75.950251984713	0.001
