version 2
run VoIP-30ms_280B-8-20160923-14:14:45-14695
attr configname VoIP-30ms_280B
attr datetime 20160923-14:14:45
attr experiment VoIP-30ms_280B
attr inifile omnetpp.ini
attr iterationvars ""
attr iterationvars2 $repetition=8
attr measurement ""
attr network SymScenerio
attr processid 14695
attr repetition 8
attr replication #8
attr resultdir results
attr runnumber 8
attr seedset 8
param **.coreDebug false
param **.debug false
param *.**.nic.mac1609_4.bitrate 18Mbps
param *.**.nic.mac1609_4.txPower 20mW
param *.**.nic.mac1609_4.useServiceChannel true
param *.**.nic.phy80211p.analogueModels "xmldoc(\"config.xml\")"
param *.**.nic.phy80211p.decider "xmldoc(\"config.xml\")"
param *.**.nic.phy80211p.sensitivity -89dBm
param *.**.nic.phy80211p.thermalNoise -110dBm
param *.**.nic.phy80211p.usePropagationDelay true
param *.**.nic.phy80211p.useThermalNoise true
param *.annotations.draw false
param *.connectionManager.alpha 2.0
param *.connectionManager.carrierFrequency "5.890e9 Hz"
param *.connectionManager.pMax 20mW
param *.connectionManager.sat -89dBm
param *.connectionManager.sendDirect true
param *.manager.autoShutdown true
param *.manager.host "\"localhost\""
param *.manager.launchConfig "xmldoc(\"map.launchd.xml\")"
param *.manager.margin 25
param *.manager.moduleDisplayString "\"\""
param *.manager.moduleName "\"node\""
param *.manager.moduleType "\"symulacja.veins.nodes.Car\""
param *.manager.port 9999
param *.manager.updateInterval 0.1s
param *.node[*].appl.beaconInterval 1s
param *.node[*].appl.beaconPriority 3
param *.node[*].appl.dataOnSch false
param *.node[*].appl.dataPriority 2
param *.node[*].appl.debug false
param *.node[*].appl.maxOffset 0.005s
param *.node[*].appl.sendBeacons false
param *.node[*].appl.sendData true
param *.node[*].appl.sendVoIP true
param *.node[*].appl.voipInterval 0.030s
param *.node[*].appl.voipLengthBits 2240bits
param *.node[*].appl.voipOnSch true
param *.node[*].appl.voipPriority 3
param *.node[*].applType "\"Sym11p\""
param *.node[*].veinsmobility.x 0
param *.node[*].veinsmobility.y 0
param *.node[*].veinsmobility.z 1.895
param *.node[*].veinsmobilityType "\"symulacja.veins.modules.mobility.traci.TraCIMobility\""
param *.playgroundSizeX 9000m
param *.playgroundSizeY 9000m
param *.playgroundSizeZ 50m
param *.rsu[*].appl.beaconInterval 1s
param *.rsu[*].appl.beaconPriority 3
param *.rsu[*].appl.dataOnSch false
param *.rsu[*].appl.dataPriority 2
param *.rsu[*].appl.debug false
param *.rsu[*].appl.headerLength "256 bit"
param *.rsu[*].appl.maxOffset 0.005s
param *.rsu[*].appl.sendBeacons false
param *.rsu[*].appl.sendData false
param *.rsu[*].appl.sendVoIP false
param *.rsu[*].applType "\"SymRSU11p\""
param *.rsu[0].mobility.x 2160
param *.rsu[0].mobility.y 3100
param *.rsu[0].mobility.z 3
param *.world.use2D false
param *.world.useTorus false

vector 14  SymScenerio.rsu[0].nic.mac1609_4  "Interwały kanałów"  ETV
vector 23  SymScenerio.node[0].veinsmobility  posx  ETV
vector 24  SymScenerio.node[0].veinsmobility  posy  ETV
vector 22  SymScenerio.node[0].nic.mac1609_4  "Interwały kanałów"  ETV
vector 25  SymScenerio.node[0].veinsmobility  speed  ETV
vector 26  SymScenerio.node[0].veinsmobility  acceleration  ETV
vector 27  SymScenerio.node[0].veinsmobility  co2emission  ETV
vector 15  SymScenerio.node[0].appl  "TX Packets"  ETV
vector 16  SymScenerio.node[0].appl  "TX Total"  ETV
vector 17  SymScenerio.node[0].appl  Pakietyzacja  ETV
vector 5  SymScenerio.rsu[0].appl  nodeALL:vector  ETV
attr source  nodeALL
attr title  "Opoznienia ALL, vector"
vector 9  SymScenerio.rsu[0].appl  "RX Packet"  ETV
vector 0  SymScenerio.rsu[0].appl  node0:vector  ETV
attr source  node0
attr title  "Opoznienia node0, vector"
vector 36  SymScenerio.node[1].veinsmobility  posx  ETV
vector 37  SymScenerio.node[1].veinsmobility  posy  ETV
vector 35  SymScenerio.node[1].nic.mac1609_4  "Interwały kanałów"  ETV
vector 38  SymScenerio.node[1].veinsmobility  speed  ETV
vector 39  SymScenerio.node[1].veinsmobility  acceleration  ETV
vector 40  SymScenerio.node[1].veinsmobility  co2emission  ETV
vector 28  SymScenerio.node[1].appl  "TX Packets"  ETV
vector 29  SymScenerio.node[1].appl  "TX Total"  ETV
vector 30  SymScenerio.node[1].appl  Pakietyzacja  ETV
vector 1  SymScenerio.rsu[0].appl  node1:vector  ETV
attr source  node1
attr title  "Opoznienia node1, vector"
vector 49  SymScenerio.node[2].veinsmobility  posx  ETV
vector 50  SymScenerio.node[2].veinsmobility  posy  ETV
vector 41  SymScenerio.node[2].appl  "TX Packets"  ETV
vector 42  SymScenerio.node[2].appl  "TX Total"  ETV
vector 43  SymScenerio.node[2].appl  Pakietyzacja  ETV
vector 48  SymScenerio.node[2].nic.mac1609_4  "Interwały kanałów"  ETV
vector 2  SymScenerio.rsu[0].appl  node2:vector  ETV
attr source  node2
attr title  "Opoznienia node2, vector"
vector 51  SymScenerio.node[2].veinsmobility  speed  ETV
vector 52  SymScenerio.node[2].veinsmobility  acceleration  ETV
vector 53  SymScenerio.node[2].veinsmobility  co2emission  ETV
vector 62  SymScenerio.node[3].veinsmobility  posx  ETV
vector 63  SymScenerio.node[3].veinsmobility  posy  ETV
vector 61  SymScenerio.node[3].nic.mac1609_4  "Interwały kanałów"  ETV
vector 64  SymScenerio.node[3].veinsmobility  speed  ETV
vector 65  SymScenerio.node[3].veinsmobility  acceleration  ETV
vector 66  SymScenerio.node[3].veinsmobility  co2emission  ETV
vector 54  SymScenerio.node[3].appl  "TX Packets"  ETV
vector 55  SymScenerio.node[3].appl  "TX Total"  ETV
vector 56  SymScenerio.node[3].appl  Pakietyzacja  ETV
vector 3  SymScenerio.rsu[0].appl  node3:vector  ETV
attr source  node3
attr title  "Opoznienia node3, vector"
vector 75  SymScenerio.node[4].veinsmobility  posx  ETV
vector 76  SymScenerio.node[4].veinsmobility  posy  ETV
vector 74  SymScenerio.node[4].nic.mac1609_4  "Interwały kanałów"  ETV
vector 77  SymScenerio.node[4].veinsmobility  speed  ETV
vector 78  SymScenerio.node[4].veinsmobility  acceleration  ETV
vector 79  SymScenerio.node[4].veinsmobility  co2emission  ETV
vector 67  SymScenerio.node[4].appl  "TX Packets"  ETV
vector 68  SymScenerio.node[4].appl  "TX Total"  ETV
vector 69  SymScenerio.node[4].appl  Pakietyzacja  ETV
vector 4  SymScenerio.rsu[0].appl  node4:vector  ETV
attr source  node4
attr title  "Opoznienia node4, vector"
17	15	0.346364163347	1.002
17	32	0.376364163347	1.002
17	50	0.406364163347	1.002
17	52	0.436364163347	1.002
17	82	0.466364163347	1.002
17	97	0.496364163347	1.002
17	115	0.526364163347	1.002
17	132	0.556364163347	1.002
17	147	0.586364163347	1.002
17	165	0.616364163347	1.002
17	167	0.646364163347	1.002
17	197	0.676364163347	1.002
17	215	0.706364163347	1.002
17	217	0.736364163347	1.002
17	247	0.766364163347	1.002
17	262	0.796364163347	1.002
17	280	0.826364163347	1.002
17	297	0.856364163347	1.002
17	312	0.886364163347	1.002
17	330	0.916364163347	1.002
17	332	0.946364163347	1.002
17	362	0.976364163347	1.002
17	380	1.006364163347	1.002
17	382	1.036364163347	1.002
17	412	1.066364163347	1.002
17	427	1.096364163347	1.002
17	445	1.126364163347	1.002
17	462	1.156364163347	1.002
17	477	1.186364163347	1.002
17	495	1.216364163347	1.002
17	497	1.246364163347	1.002
17	527	1.276364163347	1.002
17	545	1.306364163347	1.002
17	547	1.336364163347	1.002
17	577	1.366364163347	1.002
17	592	1.396364163347	1.002
17	610	1.426364163347	1.002
17	627	1.456364163347	1.002
17	642	1.486364163347	1.002
17	660	1.516364163347	1.002
17	662	1.546364163347	1.002
17	692	1.576364163347	1.002
17	710	1.606364163347	1.002
17	712	1.636364163347	1.002
17	742	1.666364163347	1.002
17	757	1.696364163347	1.002
17	775	1.726364163347	1.002
17	792	1.756364163347	1.002
17	807	1.786364163347	1.002
17	825	1.816364163347	1.002
17	827	1.846364163347	1.002
17	857	1.876364163347	1.002
17	875	1.906364163347	1.002
17	877	1.936364163347	1.002
17	907	1.966364163347	1.002
17	922	1.996364163347	1.002
17	940	2.026364163347	1.002
17	957	2.056364163347	1.002
17	972	2.086364163347	1.002
17	990	2.116364163347	1.002
17	992	2.146364163347	1.002
17	1022	2.176364163347	1.002
17	1040	2.206364163347	1.002
17	1042	2.236364163347	1.002
17	1072	2.266364163347	1.002
17	1087	2.296364163347	1.002
17	1105	2.326364163347	1.002
17	1122	2.356364163347	1.002
17	1137	2.386364163347	1.002
17	1155	2.416364163347	1.002
17	1157	2.446364163347	1.002
17	1187	2.476364163347	1.002
17	1205	2.506364163347	1.002
17	1207	2.536364163347	1.002
17	1237	2.566364163347	1.002
17	1252	2.596364163347	1.002
17	1270	2.626364163347	1.002
17	1287	2.656364163347	1.002
17	1302	2.686364163347	1.002
17	1320	2.716364163347	1.002
17	1322	2.746364163347	1.002
17	1352	2.776364163347	1.002
17	1370	2.806364163347	1.002
17	1372	2.836364163347	1.002
17	1402	2.866364163347	1.002
17	1417	2.896364163347	1.002
17	1435	2.926364163347	1.002
17	1452	2.956364163347	1.002
17	1467	2.986364163347	1.002
17	1485	3.016364163347	1.002
17	1487	3.046364163347	1.002
17	1517	3.076364163347	1.002
17	1535	3.106364163347	1.002
17	1537	3.136364163347	1.002
17	1580	3.166364163347	1.002
17	1601	3.196364163347	1.002
17	1626	3.226364163347	1.002
17	1650	3.256364163347	1.002
17	1671	3.286364163347	1.002
17	1696	3.316364163347	1.002
17	1698	3.346364163347	1.002
17	1762	3.376364163347	1.002
17	1808	3.406364163347	1.002
17	1812	3.436364163347	1.002
17	1895	3.466364163347	1.002
17	1937	3.496364163347	1.002
17	1964	3.526364163347	1.002
17	2028	3.556364163347	1.002
17	2070	3.586364163347	1.002
17	2097	3.616364163347	1.002
17	2101	3.646364163347	1.002
17	2189	3.676364163347	1.002
17	2235	3.706364163347	1.002
17	2239	3.736364163347	1.002
17	2322	3.766364163347	1.002
17	2364	3.796364163347	1.002
17	2391	3.826364163347	1.002
17	2455	3.856364163347	1.002
17	2497	3.886364163347	1.002
17	2524	3.916364163347	1.002
17	2528	3.946364163347	1.002
17	2630	3.976364163347	1.002
17	2676	4.006364163347	1.002
17	2680	4.036364163347	1.002
17	2763	4.066364163347	1.002
17	2805	4.096364163347	1.002
17	2832	4.126364163347	1.002
17	2896	4.156364163347	1.002
17	2938	4.186364163347	1.002
17	2965	4.216364163347	1.002
17	2969	4.246364163347	1.002
17	3064	4.276364163347	1.002
17	3110	4.306364163347	1.002
17	3114	4.336364163347	1.002
17	3197	4.366364163347	1.002
17	3239	4.396364163347	1.002
17	3266	4.426364163347	1.002
17	3323	4.456364163347	1.002
17	3365	4.486364163347	1.002
17	3392	4.516364163347	1.002
17	3396	4.546364163347	1.002
17	3498	4.576364163347	1.002
17	3544	4.606364163347	1.002
17	3548	4.636364163347	1.002
17	3631	4.666364163347	1.002
17	3673	4.696364163347	1.002
17	3700	4.726364163347	1.002
17	3764	4.756364163347	1.002
17	3806	4.786364163347	1.002
17	3833	4.816364163347	1.002
17	3837	4.846364163347	1.002
17	3932	4.876364163347	1.002
17	3978	4.906364163347	1.002
17	3982	4.936364163347	1.002
17	4065	4.966364163347	1.002
17	4107	4.996364163347	1.002
17	4134	5.026364163347	1.002
17	4198	5.056364163347	1.002
17	4240	5.086364163347	1.002
17	4267	5.116364163347	1.002
17	4271	5.146364163347	1.002
17	4366	5.176364163347	1.002
17	4412	5.206364163347	1.002
17	4416	5.236364163347	1.002
17	4499	5.266364163347	1.002
17	4541	5.296364163347	1.002
17	4568	5.326364163347	1.002
17	4632	5.356364163347	1.002
17	4674	5.386364163347	1.002
17	4701	5.416364163347	1.002
17	4705	5.446364163347	1.002
17	4807	5.476364163347	1.002
17	4853	5.506364163347	1.002
17	4857	5.536364163347	1.002
17	4940	5.566364163347	1.002
17	4982	5.596364163347	1.002
17	5009	5.626364163347	1.002
17	5066	5.656364163347	1.002
17	5108	5.686364163347	1.002
17	5135	5.716364163347	1.002
17	5139	5.746364163347	1.002
17	5234	5.776364163347	1.002
17	5280	5.806364163347	1.002
17	5284	5.836364163347	1.002
17	5367	5.866364163347	1.002
17	5409	5.896364163347	1.002
17	5436	5.926364163347	1.002
17	5500	5.956364163347	1.002
17	5542	5.986364163347	1.002
17	5569	6.016364163347	1.002
17	5573	6.046364163347	1.002
17	5675	6.076364163347	1.002
17	5721	6.106364163347	1.002
17	5726	6.136364163347	1.002
17	5861	6.166364163347	1.002
17	5942	6.196364163347	1.002
17	6003	6.226364163347	1.002
17	6113	6.256364163347	1.002
17	6194	6.286364163347	1.002
17	6255	6.316364163347	1.002
17	6261	6.346364163347	1.002
17	6426	6.376364163347	1.002
17	6512	6.406364163347	1.002
17	6518	6.436364163347	1.002
17	6678	6.466364163347	1.002
17	6759	6.496364163347	1.002
17	6820	6.526364163347	1.002
17	6913	6.556364163347	1.002
17	6994	6.586364163347	1.002
17	7055	6.616364163347	1.002
17	7061	6.646364163347	1.002
17	7236	6.676364163347	1.002
17	7322	6.706364163347	1.002
17	7328	6.736364163347	1.002
17	7488	6.766364163347	1.002
17	7569	6.796364163347	1.002
17	7630	6.826364163347	1.002
17	7740	6.856364163347	1.002
17	7821	6.886364163347	1.002
17	7882	6.916364163347	1.002
17	7888	6.946364163347	1.002
17	8063	6.976364163347	1.002
17	8149	7.006364163347	1.002
17	8155	7.036364163347	1.002
17	8305	7.066364163347	1.002
17	8386	7.096364163347	1.002
17	8447	7.126364163347	1.002
17	8547	7.156364163347	1.002
17	8628	7.186364163347	1.002
17	8689	7.216364163347	1.002
17	8695	7.246364163347	1.002
17	8860	7.276364163347	1.002
17	8946	7.306364163347	1.002
17	8952	7.336364163347	1.002
17	9112	7.366364163347	1.002
17	9193	7.396364163347	1.002
17	9254	7.426364163347	1.002
17	9354	7.456364163347	1.002
17	9435	7.486364163347	1.002
17	9496	7.516364163347	1.002
17	9502	7.546364163347	1.002
17	9677	7.576364163347	1.002
17	9763	7.606364163347	1.002
17	9769	7.636364163347	1.002
17	9929	7.666364163347	1.002
17	10010	7.696364163347	1.002
17	10071	7.726364163347	1.002
17	10171	7.756364163347	1.002
17	10252	7.786364163347	1.002
17	10313	7.816364163347	1.002
17	10319	7.846364163347	1.002
17	10487	7.876364163347	1.002
17	10573	7.906364163347	1.002
17	10579	7.936364163347	1.002
17	10739	7.966364163347	1.002
17	10820	7.996364163347	1.002
17	10881	8.026364163347	1.002
17	10981	8.056364163347	1.002
17	11062	8.086364163347	1.002
17	11123	8.116364163347	1.002
17	11129	8.146364163347	1.002
17	11304	8.176364163347	1.002
17	11390	8.206364163347	1.002
17	11396	8.236364163347	1.002
17	11546	8.266364163347	1.002
17	11627	8.296364163347	1.002
17	11688	8.326364163347	1.002
17	11788	8.356364163347	1.002
17	11869	8.386364163347	1.002
17	11930	8.416364163347	1.002
17	11936	8.446364163347	1.002
17	12101	8.476364163347	1.002
17	12187	8.506364163347	1.002
17	12193	8.536364163347	1.002
17	12343	8.566364163347	1.002
17	12424	8.596364163347	1.002
17	12485	8.626364163347	1.002
17	12585	8.656364163347	1.002
17	12666	8.686364163347	1.002
17	12727	8.716364163347	1.002
17	12733	8.746364163347	1.002
17	12908	8.776364163347	1.002
17	12994	8.806364163347	1.002
17	13000	8.836364163347	1.002
17	13140	8.866364163347	1.002
17	13221	8.896364163347	1.002
17	13282	8.926364163347	1.002
17	13382	8.956364163347	1.002
17	13463	8.986364163347	1.002
17	13524	9.016364163347	1.002
17	13530	9.046364163347	1.002
17	13705	9.076364163347	1.002
17	13791	9.106364163347	1.002
17	13797	9.136364163347	1.002
17	13970	9.166364163347	1.002
17	14069	9.196364163347	1.002
17	14143	9.226364163347	1.002
17	14278	9.256364163347	1.002
17	14377	9.286364163347	1.002
17	14451	9.316364163347	1.002
17	14457	9.346364163347	1.002
17	14672	9.376364163347	1.002
17	14777	9.406364163347	1.002
17	14783	9.436364163347	1.002
17	14954	9.466364163347	1.002
17	15053	9.496364163347	1.002
17	15127	9.526364163347	1.002
17	15249	9.556364163347	1.002
17	15348	9.586364163347	1.002
17	15422	9.616364163347	1.002
17	15428	9.646364163347	1.002
17	15676	9.676364163347	1.002
17	15814	9.706364163347	1.002
17	15822	9.736364163347	1.002
17	16049	9.766364163347	1.002
17	16181	9.796364163347	1.002
17	16257	9.826364163347	1.002
17	16431	9.856364163347	1.002
17	16563	9.886364163347	1.002
17	16670	9.916364163347	1.002
17	16678	9.946364163347	1.002
17	16932	9.976364163347	1.002
17	17070	10.006364163347	1.002
17	17078	10.036364163347	1.002
17	17326	10.066364163347	1.002
17	17458	10.096364163347	1.002
17	17534	10.126364163347	1.002
17	17720	10.156364163347	1.002
17	17852	10.186364163347	1.002
17	17959	10.216364163347	1.002
17	17967	10.246364163347	1.002
17	18233	10.276364163347	1.002
17	18371	10.306364163347	1.002
17	18379	10.336364163347	1.002
17	18618	10.366364163347	1.002
17	18750	10.396364163347	1.002
17	18826	10.426364163347	1.002
17	19003	10.456364163347	1.002
17	19135	10.486364163347	1.002
17	19242	10.516364163347	1.002
17	19250	10.546364163347	1.002
17	19503	10.576364163347	1.002
17	19641	10.606364163347	1.002
17	19649	10.636364163347	1.002
17	19897	10.666364163347	1.002
17	20029	10.696364163347	1.002
17	20105	10.726364163347	1.002
17	20278	10.756364163347	1.002
17	20410	10.786364163347	1.002
17	20517	10.816364163347	1.002
17	20525	10.846364163347	1.002
17	20791	10.876364163347	1.002
17	20929	10.906364163347	1.002
17	20937	10.936364163347	1.002
17	21185	10.966364163347	1.002
17	21317	10.996364163347	1.002
17	21393	11.026364163347	1.002
17	21566	11.056364163347	1.002
17	21698	11.086364163347	1.002
17	21805	11.116364163347	1.002
17	21813	11.146364163347	1.002
17	22083	11.176364163347	1.002
17	22221	11.206364163347	1.002
17	22229	11.236364163347	1.002
17	22477	11.266364163347	1.002
17	22609	11.296364163347	1.002
17	22685	11.326364163347	1.002
17	22871	11.356364163347	1.002
17	23003	11.386364163347	1.002
17	23110	11.416364163347	1.002
17	23118	11.446364163347	1.002
17	23384	11.476364163347	1.002
17	23522	11.506364163347	1.002
17	23530	11.536364163347	1.002
17	23778	11.566364163347	1.002
17	23910	11.596364163347	1.002
17	23986	11.626364163347	1.002
17	24159	11.656364163347	1.002
17	24291	11.686364163347	1.002
17	24398	11.716364163347	1.002
17	24406	11.746364163347	1.002
17	24663	11.776364163347	1.002
17	24801	11.806364163347	1.002
17	24809	11.836364163347	1.002
17	25057	11.866364163347	1.002
17	25189	11.896364163347	1.002
17	25265	11.926364163347	1.002
17	25442	11.956364163347	1.002
17	25574	11.986364163347	1.002
17	25681	12.016364163347	1.002
17	25689	12.046364163347	1.002
17	25946	12.076364163347	1.002
17	26084	12.106364163347	1.002
17	26092	12.136364163347	1.002
17	26386	12.166364163347	1.002
17	26542	12.196364163347	1.002
17	26631	12.226364163347	1.002
17	26851	12.256364163347	1.002
17	27007	12.286364163347	1.002
17	27133	12.316364163347	1.002
17	27141	12.346364163347	1.002
17	27446	12.376364163347	1.002
17	27609	12.406364163347	1.002
17	27617	12.436364163347	1.002
17	27927	12.466364163347	1.002
17	28083	12.496364163347	1.002
17	28172	12.526364163347	1.002
17	28381	12.556364163347	1.002
17	28537	12.586364163347	1.002
17	28663	12.616364163347	1.002
17	28671	12.646364163347	1.002
17	29030	12.676364163347	1.002
17	29232	12.706364163347	1.002
17	29242	12.736364163347	1.002
17	29585	12.766364163347	1.002
17	29780	12.796364163347	1.002
17	29871	12.826364163347	1.002
17	30140	12.856364163347	1.002
17	30335	12.886364163347	1.002
17	30463	12.916364163347	1.002
17	30473	12.946364163347	1.002
17	30879	12.976364163347	1.002
17	31081	13.006364163347	1.002
17	31091	13.036364163347	1.002
17	31461	13.066364163347	1.002
17	31656	13.096364163347	1.002
17	31747	13.126364163347	1.002
17	32032	13.156364163347	1.002
17	32227	13.186364163347	1.002
17	32355	13.216364163347	1.002
17	32365	13.246364163347	1.002
17	32767	13.276364163347	1.002
17	32969	13.306364163347	1.002
17	32979	13.336364163347	1.002
17	33349	13.366364163347	1.002
17	33544	13.396364163347	1.002
17	33635	13.426364163347	1.002
17	33931	13.456364163347	1.002
17	34126	13.486364163347	1.002
17	34254	13.516364163347	1.002
17	34264	13.546364163347	1.002
17	34681	13.576364163347	1.002
17	34883	13.606364163347	1.002
17	34893	13.636364163347	1.002
17	35263	13.666364163347	1.002
17	35458	13.696364163347	1.002
17	35549	13.726364163347	1.002
17	35829	13.756364163347	1.002
17	36024	13.786364163347	1.002
17	36152	13.816364163347	1.002
17	36162	13.846364163347	1.002
17	36568	13.876364163347	1.002
17	36770	13.906364163347	1.002
17	36780	13.936364163347	1.002
17	37139	13.966364163347	1.002
17	37334	13.996364163347	1.002
17	37425	14.026364163347	1.002
17	37689	14.056364163347	1.002
17	37884	14.086364163347	1.002
17	38012	14.116364163347	1.002
17	38022	14.146364163347	1.002
17	38420	14.176364163347	1.002
17	38622	14.206364163347	1.002
17	38632	14.236364163347	1.002
17	38960	14.266364163347	1.002
17	39155	14.296364163347	1.002
17	39246	14.326364163347	1.002
17	39526	14.356364163347	1.002
17	39721	14.386364163347	1.002
17	39849	14.416364163347	1.002
17	39859	14.446364163347	1.002
17	40260	14.476364163347	1.002
17	40462	14.506364163347	1.002
17	40472	14.536364163347	1.002
17	40812	14.566364163347	1.002
17	41007	14.596364163347	1.002
17	41098	14.626364163347	1.002
17	41362	14.656364163347	1.002
17	41557	14.686364163347	1.002
17	41685	14.716364163347	1.002
17	41695	14.746364163347	1.002
17	42096	14.776364163347	1.002
17	42298	14.806364163347	1.002
17	42308	14.836364163347	1.002
17	42640	14.866364163347	1.002
17	42835	14.896364163347	1.002
17	42926	14.926364163347	1.002
17	43211	14.956364163347	1.002
17	43406	14.986364163347	1.002
17	43534	15.016364163347	1.002
17	43544	15.046364163347	1.002
17	43945	15.076364163347	1.002
17	44147	15.106364163347	1.002
17	44157	15.136364163347	1.002
17	44500	15.166364163347	1.002
17	44695	15.196364163347	1.002
17	44786	15.226364163347	1.002
17	45066	15.256364163347	1.002
17	45261	15.286364163347	1.002
17	45389	15.316364163347	1.002
17	45399	15.346364163347	1.002
17	45784	15.376364163347	1.002
17	45986	15.406364163347	1.002
17	45996	15.436364163347	1.002
17	46339	15.466364163347	1.002
17	46534	15.496364163347	1.002
17	46625	15.526364163347	1.002
17	46905	15.556364163347	1.002
17	47100	15.586364163347	1.002
17	47228	15.616364163347	1.002
17	47238	15.646364163347	1.002
17	47655	15.676364163347	1.002
17	47857	15.706364163347	1.002
17	47867	15.736364163347	1.002
17	48221	15.766364163347	1.002
17	48416	15.796364163347	1.002
17	48507	15.826364163347	1.002
17	48760	15.856364163347	1.002
17	48955	15.886364163347	1.002
17	49083	15.916364163347	1.002
17	49093	15.946364163347	1.002
17	49478	15.976364163347	1.002
17	49680	16.006364163347	1.002
17	49690	16.036364163347	1.002
17	50044	16.066364163347	1.002
17	50239	16.096364163347	1.002
17	50330	16.126364163347	1.002
17	50599	16.156364163347	1.002
17	50794	16.186364163347	1.002
17	50922	16.216364163347	1.002
17	50932	16.246364163347	1.002
17	51349	16.276364163347	1.002
17	51551	16.306364163347	1.002
17	51561	16.336364163347	1.002
17	51931	16.366364163347	1.002
17	52126	16.396364163347	1.002
17	52217	16.426364163347	1.002
17	52497	16.456364163347	1.002
17	52692	16.486364163347	1.002
17	52820	16.516364163347	1.002
17	52830	16.546364163347	1.002
17	53236	16.576364163347	1.002
17	53438	16.606364163347	1.002
17	53448	16.636364163347	1.002
17	53775	16.666364163347	1.002
17	53970	16.696364163347	1.002
17	54061	16.726364163347	1.002
17	54341	16.756364163347	1.002
17	54536	16.786364163347	1.002
17	54664	16.816364163347	1.002
17	54674	16.846364163347	1.002
17	55064	16.876364163347	1.002
17	55266	16.906364163347	1.002
17	55276	16.936364163347	1.002
17	55619	16.966364163347	1.002
17	55814	16.996364163347	1.002
17	55905	17.026364163347	1.002
17	56190	17.056364163347	1.002
17	56385	17.086364163347	1.002
17	56513	17.116364163347	1.002
17	56523	17.146364163347	1.002
17	56913	17.176364163347	1.002
17	57115	17.206364163347	1.002
17	57125	17.236364163347	1.002
17	57495	17.266364163347	1.002
17	57690	17.296364163347	1.002
17	57781	17.326364163347	1.002
17	58039	17.356364163347	1.002
17	58234	17.386364163347	1.002
17	58362	17.416364163347	1.002
17	58372	17.446364163347	1.002
17	58773	17.476364163347	1.002
17	58975	17.506364163347	1.002
17	58985	17.536364163347	1.002
17	59323	17.566364163347	1.002
17	59518	17.596364163347	1.002
17	59609	17.626364163347	1.002
17	59873	17.656364163347	1.002
17	60068	17.686364163347	1.002
17	60196	17.716364163347	1.002
17	60206	17.746364163347	1.002
17	60612	17.776364163347	1.002
17	60814	17.806364163347	1.002
17	60824	17.836364163347	1.002
17	61194	17.866364163347	1.002
17	61389	17.896364163347	1.002
17	61480	17.926364163347	1.002
17	61749	17.956364163347	1.002
17	61944	17.986364163347	1.002
17	62072	18.016364163347	1.002
17	62082	18.046364163347	1.002
17	62494	18.076364163347	1.002
17	62696	18.106364163347	1.002
17	62706	18.136364163347	1.002
17	63049	18.166364163347	1.002
17	63244	18.196364163347	1.002
17	63335	18.226364163347	1.002
17	63604	18.256364163347	1.002
17	63799	18.286364163347	1.002
17	63927	18.316364163347	1.002
17	63937	18.346364163347	1.002
17	64338	18.376364163347	1.002
17	64540	18.406364163347	1.002
17	64550	18.436364163347	1.002
17	64882	18.466364163347	1.002
17	65077	18.496364163347	1.002
17	65168	18.526364163347	1.002
17	65437	18.556364163347	1.002
17	65632	18.586364163347	1.002
17	65760	18.616364163347	1.002
17	65770	18.646364163347	1.002
17	66171	18.676364163347	1.002
17	66373	18.706364163347	1.002
17	66383	18.736364163347	1.002
17	66737	18.766364163347	1.002
17	66932	18.796364163347	1.002
17	67023	18.826364163347	1.002
17	67292	18.856364163347	1.002
17	67487	18.886364163347	1.002
17	67615	18.916364163347	1.002
17	67625	18.946364163347	1.002
17	68037	18.976364163347	1.002
17	68239	19.006364163347	1.002
17	68249	19.036364163347	1.002
17	68603	19.066364163347	1.002
17	68798	19.096364163347	1.002
17	68889	19.126364163347	1.002
17	69169	19.156364163347	1.002
17	69364	19.186364163347	1.002
17	69492	19.216364163347	1.002
17	69502	19.246364163347	1.002
17	69919	19.276364163347	1.002
17	70121	19.306364163347	1.002
17	70131	19.336364163347	1.002
17	70469	19.366364163347	1.002
17	70664	19.396364163347	1.002
17	70755	19.426364163347	1.002
17	71035	19.456364163347	1.002
17	71230	19.486364163347	1.002
17	71358	19.516364163347	1.002
17	71368	19.546364163347	1.002
17	71785	19.576364163347	1.002
17	71987	19.606364163347	1.002
17	71997	19.636364163347	1.002
17	72351	19.666364163347	1.002
17	72546	19.696364163347	1.002
17	72637	19.726364163347	1.002
17	72890	19.756364163347	1.002
17	73085	19.786364163347	1.002
17	73213	19.816364163347	1.002
17	73223	19.846364163347	1.002
17	73629	19.876364163347	1.002
17	73831	19.906364163347	1.002
17	73841	19.936364163347	1.002
17	74195	19.966364163347	1.002
17	74390	19.996364163347	1.002
17	74481	20.026364163347	1.002
17	74761	20.056364163347	1.002
17	74956	20.086364163347	1.002
17	75084	20.116364163347	1.002
17	75094	20.146364163347	1.002
17	75490	20.176364163347	1.002
17	75692	20.206364163347	1.002
17	75702	20.236364163347	1.002
17	76072	20.266364163347	1.002
17	76267	20.296364163347	1.002
17	76358	20.326364163347	1.002
17	76638	20.356364163347	1.002
17	76833	20.386364163347	1.002
17	76961	20.416364163347	1.002
17	76971	20.446364163347	1.002
17	77372	20.476364163347	1.002
17	77574	20.506364163347	1.002
17	77584	20.536364163347	1.002
17	77927	20.566364163347	1.002
17	78122	20.596364163347	1.002
17	78213	20.626364163347	1.002
17	78493	20.656364163347	1.002
17	78688	20.686364163347	1.002
17	78816	20.716364163347	1.002
17	78826	20.746364163347	1.002
17	79232	20.776364163347	1.002
17	79434	20.806364163347	1.002
17	79444	20.836364163347	1.002
17	79814	20.866364163347	1.002
17	80009	20.896364163347	1.002
17	80100	20.926364163347	1.002
17	80369	20.956364163347	1.002
17	80564	20.986364163347	1.002
17	80692	21.016364163347	1.002
17	80702	21.046364163347	1.002
17	81103	21.076364163347	1.002
17	81305	21.106364163347	1.002
17	81315	21.136364163347	1.002
17	81669	21.166364163347	1.002
17	81864	21.196364163347	1.002
17	81955	21.226364163347	1.002
17	82224	21.256364163347	1.002
17	82419	21.286364163347	1.002
17	82547	21.316364163347	1.002
17	82557	21.346364163347	1.002
17	82974	21.376364163347	1.002
17	83176	21.406364163347	1.002
17	83186	21.436364163347	1.002
17	83524	21.466364163347	1.002
17	83719	21.496364163347	1.002
17	83810	21.526364163347	1.002
17	84068	21.556364163347	1.002
17	84263	21.586364163347	1.002
17	84391	21.616364163347	1.002
17	84401	21.646364163347	1.002
17	84802	21.676364163347	1.002
17	85004	21.706364163347	1.002
17	85014	21.736364163347	1.002
17	85368	21.766364163347	1.002
17	85563	21.796364163347	1.002
17	85654	21.826364163347	1.002
17	85950	21.856364163347	1.002
17	86145	21.886364163347	1.002
17	86273	21.916364163347	1.002
17	86283	21.946364163347	1.002
17	86679	21.976364163347	1.002
17	86881	22.006364163347	1.002
17	86891	22.036364163347	1.002
17	87234	22.066364163347	1.002
17	87429	22.096364163347	1.002
17	87520	22.126364163347	1.002
17	87773	22.156364163347	1.002
17	87968	22.186364163347	1.002
17	88096	22.216364163347	1.002
17	88106	22.246364163347	1.002
17	88496	22.276364163347	1.002
17	88698	22.306364163347	1.002
17	88708	22.336364163347	1.002
17	89078	22.366364163347	1.002
17	89273	22.396364163347	1.002
17	89364	22.426364163347	1.002
17	89644	22.456364163347	1.002
17	89839	22.486364163347	1.002
17	89967	22.516364163347	1.002
17	89977	22.546364163347	1.002
17	90383	22.576364163347	1.002
17	90585	22.606364163347	1.002
17	90595	22.636364163347	1.002
17	90954	22.666364163347	1.002
17	91149	22.696364163347	1.002
17	91240	22.726364163347	1.002
17	91504	22.756364163347	1.002
17	91699	22.786364163347	1.002
17	91827	22.816364163347	1.002
17	91837	22.846364163347	1.002
17	92254	22.876364163347	1.002
17	92456	22.906364163347	1.002
17	92466	22.936364163347	1.002
17	92804	22.966364163347	1.002
17	92999	22.996364163347	1.002
17	93090	23.026364163347	1.002
17	93370	23.056364163347	1.002
17	93565	23.086364163347	1.002
17	93693	23.116364163347	1.002
17	93703	23.146364163347	1.002
17	94120	23.176364163347	1.002
17	94322	23.206364163347	1.002
17	94332	23.236364163347	1.002
17	94702	23.266364163347	1.002
17	94897	23.296364163347	1.002
17	94988	23.326364163347	1.002
17	95257	23.356364163347	1.002
17	95452	23.386364163347	1.002
17	95580	23.416364163347	1.002
17	95590	23.446364163347	1.002
17	96007	23.476364163347	1.002
17	96209	23.506364163347	1.002
17	96219	23.536364163347	1.002
17	96573	23.566364163347	1.002
17	96768	23.596364163347	1.002
17	96859	23.626364163347	1.002
17	97139	23.656364163347	1.002
17	97334	23.686364163347	1.002
17	97462	23.716364163347	1.002
17	97472	23.746364163347	1.002
17	97873	23.776364163347	1.002
17	98075	23.806364163347	1.002
17	98085	23.836364163347	1.002
17	98439	23.866364163347	1.002
17	98634	23.896364163347	1.002
17	98725	23.926364163347	1.002
17	99005	23.956364163347	1.002
17	99200	23.986364163347	1.002
17	99328	24.016364163347	1.002
17	99338	24.046364163347	1.002
17	99728	24.076364163347	1.002
17	99930	24.106364163347	1.002
17	99940	24.136364163347	1.002
17	100310	24.166364163347	1.002
17	100505	24.196364163347	1.002
17	100596	24.226364163347	1.002
17	100876	24.256364163347	1.002
17	101071	24.286364163347	1.002
17	101199	24.316364163347	1.002
17	101209	24.346364163347	1.002
17	101626	24.376364163347	1.002
17	101828	24.406364163347	1.002
17	101838	24.436364163347	1.002
17	102197	24.466364163347	1.002
17	102392	24.496364163347	1.002
17	102483	24.526364163347	1.002
17	102752	24.556364163347	1.002
17	102947	24.586364163347	1.002
17	103075	24.616364163347	1.002
17	103085	24.646364163347	1.002
17	103486	24.676364163347	1.002
17	103688	24.706364163347	1.002
17	103698	24.736364163347	1.002
17	104052	24.766364163347	1.002
17	104247	24.796364163347	1.002
17	104338	24.826364163347	1.002
17	104623	24.856364163347	1.002
17	104818	24.886364163347	1.002
17	104946	24.916364163347	1.002
17	104956	24.946364163347	1.002
17	105357	24.976364163347	1.002
17	105559	25.006364163347	1.002
17	105569	25.036364163347	1.002
17	105939	25.066364163347	1.002
17	106134	25.096364163347	1.002
17	106225	25.126364163347	1.002
17	106483	25.156364163347	1.002
17	106678	25.186364163347	1.002
17	106806	25.216364163347	1.002
17	106816	25.246364163347	1.002
17	107233	25.276364163347	1.002
17	107435	25.306364163347	1.002
17	107445	25.336364163347	1.002
17	107831	25.366364163347	1.002
17	108026	25.396364163347	1.002
17	108117	25.426364163347	1.002
17	108386	25.456364163347	1.002
17	108581	25.486364163347	1.002
17	108709	25.516364163347	1.002
17	108719	25.546364163347	1.002
17	109131	25.576364163347	1.002
17	109333	25.606364163347	1.002
17	109343	25.636364163347	1.002
17	109697	25.666364163347	1.002
17	109892	25.696364163347	1.002
17	109983	25.726364163347	1.002
17	110257	25.756364163347	1.002
17	110452	25.786364163347	1.002
17	110580	25.816364163347	1.002
17	110590	25.846364163347	1.002
17	110996	25.876364163347	1.002
17	111198	25.906364163347	1.002
17	111208	25.936364163347	1.002
17	111546	25.966364163347	1.002
17	111741	25.996364163347	1.002
17	111832	26.026364163347	1.002
17	112106	26.056364163347	1.002
17	112301	26.086364163347	1.002
17	112429	26.116364163347	1.002
17	112439	26.146364163347	1.002
17	112851	26.176364163347	1.002
17	113053	26.206364163347	1.002
17	113063	26.236364163347	1.002
17	113417	26.266364163347	1.002
17	113612	26.296364163347	1.002
17	113703	26.326364163347	1.002
17	113961	26.356364163347	1.002
17	114156	26.386364163347	1.002
17	114284	26.416364163347	1.002
17	114294	26.446364163347	1.002
17	114684	26.476364163347	1.002
17	114886	26.506364163347	1.002
17	114896	26.536364163347	1.002
17	115234	26.566364163347	1.002
17	115429	26.596364163347	1.002
17	115520	26.626364163347	1.002
17	115789	26.656364163347	1.002
17	115984	26.686364163347	1.002
17	116112	26.716364163347	1.002
17	116122	26.746364163347	1.002
17	116518	26.776364163347	1.002
17	116720	26.806364163347	1.002
17	116730	26.836364163347	1.002
17	117084	26.866364163347	1.002
17	117279	26.896364163347	1.002
17	117370	26.926364163347	1.002
17	117639	26.956364163347	1.002
17	117834	26.986364163347	1.002
17	117962	27.016364163347	1.002
17	117972	27.046364163347	1.002
17	118373	27.076364163347	1.002
17	118575	27.106364163347	1.002
17	118585	27.136364163347	1.002
17	118923	27.166364163347	1.002
17	119118	27.196364163347	1.002
17	119209	27.226364163347	1.002
17	119494	27.256364163347	1.002
17	119689	27.286364163347	1.002
17	119817	27.316364163347	1.002
17	119827	27.346364163347	1.002
17	120244	27.376364163347	1.002
17	120446	27.406364163347	1.002
17	120456	27.436364163347	1.002
17	120826	27.466364163347	1.002
17	121021	27.496364163347	1.002
17	121112	27.526364163347	1.002
17	121386	27.556364163347	1.002
17	121581	27.586364163347	1.002
17	121709	27.616364163347	1.002
17	121719	27.646364163347	1.002
17	122131	27.676364163347	1.002
17	122333	27.706364163347	1.002
17	122343	27.736364163347	1.002
17	122702	27.766364163347	1.002
17	122897	27.796364163347	1.002
17	122988	27.826364163347	1.002
17	123257	27.856364163347	1.002
17	123452	27.886364163347	1.002
17	123580	27.916364163347	1.002
17	123590	27.946364163347	1.002
17	123991	27.976364163347	1.002
17	124193	28.006364163347	1.002
17	124203	28.036364163347	1.002
17	124541	28.066364163347	1.002
17	124736	28.096364163347	1.002
17	124827	28.126364163347	1.002
17	125096	28.156364163347	1.002
17	125291	28.186364163347	1.002
17	125419	28.216364163347	1.002
17	125429	28.246364163347	1.002
17	125830	28.276364163347	1.002
17	126032	28.306364163347	1.002
17	126042	28.336364163347	1.002
17	126412	28.366364163347	1.002
17	126607	28.396364163347	1.002
17	126698	28.426364163347	1.002
17	126994	28.456364163347	1.002
17	127189	28.486364163347	1.002
17	127317	28.516364163347	1.002
17	127327	28.546364163347	1.002
17	127723	28.576364163347	1.002
17	127925	28.606364163347	1.002
17	127935	28.636364163347	1.002
17	128289	28.666364163347	1.002
17	128484	28.696364163347	1.002
17	128575	28.726364163347	1.002
17	128855	28.756364163347	1.002
17	129050	28.786364163347	1.002
17	129178	28.816364163347	1.002
17	129188	28.846364163347	1.002
17	129589	28.876364163347	1.002
17	129791	28.906364163347	1.002
17	129801	28.936364163347	1.002
17	130133	28.966364163347	1.002
17	130328	28.996364163347	1.002
17	130419	29.026364163347	1.002
17	130704	29.056364163347	1.002
17	130899	29.086364163347	1.002
17	131027	29.116364163347	1.002
17	131037	29.146364163347	1.002
17	131449	29.176364163347	1.002
17	131651	29.206364163347	1.002
17	131661	29.236364163347	1.002
17	132015	29.266364163347	1.002
17	132210	29.296364163347	1.002
17	132301	29.326364163347	1.002
17	132581	29.356364163347	1.002
17	132776	29.386364163347	1.002
17	132904	29.416364163347	1.002
17	132914	29.446364163347	1.002
17	133331	29.476364163347	1.002
17	133533	29.506364163347	1.002
17	133543	29.536364163347	1.002
17	133897	29.566364163347	1.002
17	134092	29.596364163347	1.002
17	134183	29.626364163347	1.002
17	134452	29.656364163347	1.002
17	134647	29.686364163347	1.002
17	134775	29.716364163347	1.002
17	134785	29.746364163347	1.002
17	135218	29.776364163347	1.002
17	135420	29.806364163347	1.002
17	135430	29.836364163347	1.002
17	135784	29.866364163347	1.002
17	135979	29.896364163347	1.002
17	136070	29.926364163347	1.002
17	136355	29.956364163347	1.002
17	136550	29.986364163347	1.002
17	136678	30.016364163347	1.002
17	136688	30.046364163347	1.002
17	137105	30.076364163347	1.002
17	137307	30.106364163347	1.002
17	137317	30.136364163347	1.002
17	137671	30.166364163347	1.002
17	137866	30.196364163347	1.002
17	137957	30.226364163347	1.002
17	138237	30.256364163347	1.002
17	138432	30.286364163347	1.002
17	138560	30.316364163347	1.002
17	138570	30.346364163347	1.002
17	138976	30.376364163347	1.002
17	139178	30.406364163347	1.002
17	139188	30.436364163347	1.002
17	139542	30.466364163347	1.002
17	139737	30.496364163347	1.002
17	139828	30.526364163347	1.002
17	140113	30.556364163347	1.002
17	140308	30.586364163347	1.002
17	140436	30.616364163347	1.002
17	140446	30.646364163347	1.002
17	140863	30.676364163347	1.002
17	141065	30.706364163347	1.002
17	141075	30.736364163347	1.002
17	141413	30.766364163347	1.002
17	141608	30.796364163347	1.002
17	141699	30.826364163347	1.002
17	141979	30.856364163347	1.002
17	142174	30.886364163347	1.002
17	142302	30.916364163347	1.002
17	142312	30.946364163347	1.002
17	142718	30.976364163347	1.002
17	142920	31.006364163347	1.002
17	142930	31.036364163347	1.002
17	143273	31.066364163347	1.002
17	143468	31.096364163347	1.002
17	143559	31.126364163347	1.002
17	143833	31.156364163347	1.002
17	144028	31.186364163347	1.002
17	144156	31.216364163347	1.002
17	144166	31.246364163347	1.002
17	144583	31.276364163347	1.002
17	144785	31.306364163347	1.002
17	144795	31.336364163347	1.002
17	145138	31.366364163347	1.002
17	145333	31.396364163347	1.002
17	145424	31.426364163347	1.002
17	145693	31.456364163347	1.002
17	145888	31.486364163347	1.002
17	146016	31.516364163347	1.002
17	146026	31.546364163347	1.002
17	146454	31.576364163347	1.002
17	146656	31.606364163347	1.002
17	146666	31.636364163347	1.002
17	147009	31.666364163347	1.002
17	147204	31.696364163347	1.002
17	147295	31.726364163347	1.002
17	147564	31.756364163347	1.002
17	147759	31.786364163347	1.002
17	147887	31.816364163347	1.002
17	147897	31.846364163347	1.002
17	148330	31.876364163347	1.002
17	148532	31.906364163347	1.002
17	148542	31.936364163347	1.002
17	148880	31.966364163347	1.002
17	149075	31.996364163347	1.002
17	149166	32.026364163347	1.002
17	149430	32.056364163347	1.002
17	149625	32.086364163347	1.002
17	149753	32.116364163347	1.002
17	149763	32.146364163347	1.002
17	150164	32.176364163347	1.002
17	150366	32.206364163347	1.002
17	150376	32.236364163347	1.002
17	150730	32.266364163347	1.002
17	150925	32.296364163347	1.002
17	151016	32.326364163347	1.002
17	151269	32.356364163347	1.002
17	151464	32.386364163347	1.002
17	151592	32.416364163347	1.002
17	151602	32.446364163347	1.002
17	152008	32.476364163347	1.002
17	152210	32.506364163347	1.002
17	152220	32.536364163347	1.002
17	152574	32.566364163347	1.002
17	152769	32.596364163347	1.002
17	152860	32.626364163347	1.002
17	153145	32.656364163347	1.002
17	153340	32.686364163347	1.002
17	153468	32.716364163347	1.002
17	153478	32.746364163347	1.002
17	153879	32.776364163347	1.002
17	154081	32.806364163347	1.002
17	154091	32.836364163347	1.002
17	154445	32.866364163347	1.002
17	154640	32.896364163347	1.002
17	154731	32.926364163347	1.002
17	154995	32.956364163347	1.002
17	155190	32.986364163347	1.002
17	155318	33.016364163347	1.002
17	155328	33.046364163347	1.002
17	155729	33.076364163347	1.002
17	155931	33.106364163347	1.002
17	155941	33.136364163347	1.002
17	156295	33.166364163347	1.002
17	156490	33.196364163347	1.002
17	156581	33.226364163347	1.002
17	156845	33.256364163347	1.002
17	157040	33.286364163347	1.002
17	157168	33.316364163347	1.002
17	157178	33.346364163347	1.002
17	157579	33.376364163347	1.002
17	157781	33.406364163347	1.002
17	157791	33.436364163347	1.002
17	158145	33.466364163347	1.002
17	158340	33.496364163347	1.002
17	158431	33.526364163347	1.002
17	158711	33.556364163347	1.002
17	158906	33.586364163347	1.002
17	159034	33.616364163347	1.002
17	159044	33.646364163347	1.002
17	159461	33.676364163347	1.002
17	159663	33.706364163347	1.002
17	159673	33.736364163347	1.002
17	160027	33.766364163347	1.002
17	160222	33.796364163347	1.002
17	160313	33.826364163347	1.002
17	160609	33.856364163347	1.002
17	160804	33.886364163347	1.002
17	160932	33.916364163347	1.002
17	160942	33.946364163347	1.002
17	161332	33.976364163347	1.002
17	161534	34.006364163347	1.002
17	161544	34.036364163347	1.002
17	161898	34.066364163347	1.002
17	162093	34.096364163347	1.002
17	162184	34.126364163347	1.002
17	162469	34.156364163347	1.002
17	162664	34.186364163347	1.002
17	162792	34.216364163347	1.002
17	162802	34.246364163347	1.002
17	163198	34.276364163347	1.002
17	163400	34.306364163347	1.002
17	163410	34.336364163347	1.002
17	163753	34.366364163347	1.002
17	163948	34.396364163347	1.002
17	164039	34.426364163347	1.002
17	164324	34.456364163347	1.002
17	164519	34.486364163347	1.002
17	164647	34.516364163347	1.002
17	164657	34.546364163347	1.002
17	165069	34.576364163347	1.002
17	165271	34.606364163347	1.002
17	165281	34.636364163347	1.002
17	165619	34.666364163347	1.002
17	165814	34.696364163347	1.002
17	165905	34.726364163347	1.002
17	166174	34.756364163347	1.002
17	166369	34.786364163347	1.002
17	166497	34.816364163347	1.002
17	166507	34.846364163347	1.002
17	166924	34.876364163347	1.002
17	167126	34.906364163347	1.002
17	167136	34.936364163347	1.002
17	167495	34.966364163347	1.002
17	167690	34.996364163347	1.002
17	167781	35.026364163347	1.002
17	168061	35.056364163347	1.002
17	168256	35.086364163347	1.002
17	168384	35.116364163347	1.002
17	168394	35.146364163347	1.002
17	168784	35.176364163347	1.002
17	168986	35.206364163347	1.002
17	168996	35.236364163347	1.002
17	169339	35.266364163347	1.002
17	169534	35.296364163347	1.002
17	169625	35.326364163347	1.002
17	169894	35.356364163347	1.002
17	170089	35.386364163347	1.002
17	170217	35.416364163347	1.002
17	170227	35.446364163347	1.002
17	170660	35.476364163347	1.002
17	170862	35.506364163347	1.002
17	170872	35.536364163347	1.002
17	171226	35.566364163347	1.002
17	171421	35.596364163347	1.002
17	171512	35.626364163347	1.002
17	171797	35.656364163347	1.002
17	171992	35.686364163347	1.002
17	172120	35.716364163347	1.002
17	172130	35.746364163347	1.002
17	172531	35.776364163347	1.002
17	172733	35.806364163347	1.002
17	172743	35.836364163347	1.002
17	173102	35.866364163347	1.002
17	173297	35.896364163347	1.002
17	173388	35.926364163347	1.002
17	173657	35.956364163347	1.002
17	173852	35.986364163347	1.002
17	173980	36.016364163347	1.002
17	173990	36.046364163347	1.002
17	174402	36.076364163347	1.002
17	174604	36.106364163347	1.002
17	174614	36.136364163347	1.002
17	174952	36.166364163347	1.002
17	175147	36.196364163347	1.002
17	175238	36.226364163347	1.002
17	175502	36.256364163347	1.002
17	175697	36.286364163347	1.002
17	175825	36.316364163347	1.002
17	175835	36.346364163347	1.002
17	176225	36.376364163347	1.002
17	176427	36.406364163347	1.002
17	176437	36.436364163347	1.002
17	176796	36.466364163347	1.002
17	176991	36.496364163347	1.002
17	177082	36.526364163347	1.002
17	177362	36.556364163347	1.002
17	177557	36.586364163347	1.002
17	177685	36.616364163347	1.002
17	177695	36.646364163347	1.002
17	178107	36.676364163347	1.002
17	178309	36.706364163347	1.002
17	178319	36.736364163347	1.002
17	178673	36.766364163347	1.002
17	178868	36.796364163347	1.002
17	178959	36.826364163347	1.002
17	179255	36.856364163347	1.002
17	179450	36.886364163347	1.002
17	179578	36.916364163347	1.002
17	179588	36.946364163347	1.002
17	179984	36.976364163347	1.002
17	180186	37.006364163347	1.002
17	180196	37.036364163347	1.002
17	180550	37.066364163347	1.002
17	180745	37.096364163347	1.002
17	180836	37.126364163347	1.002
17	181121	37.156364163347	1.002
17	181316	37.186364163347	1.002
17	181444	37.216364163347	1.002
17	181454	37.246364163347	1.002
17	181882	37.276364163347	1.002
17	182084	37.306364163347	1.002
17	182094	37.336364163347	1.002
17	182448	37.366364163347	1.002
17	182643	37.396364163347	1.002
17	182734	37.426364163347	1.002
17	183014	37.456364163347	1.002
17	183209	37.486364163347	1.002
17	183337	37.516364163347	1.002
17	183347	37.546364163347	1.002
17	183764	37.576364163347	1.002
17	183966	37.606364163347	1.002
17	183976	37.636364163347	1.002
17	184314	37.666364163347	1.002
17	184509	37.696364163347	1.002
17	184600	37.726364163347	1.002
17	184869	37.756364163347	1.002
17	185064	37.786364163347	1.002
17	185192	37.816364163347	1.002
17	185202	37.846364163347	1.002
17	185619	37.876364163347	1.002
17	185821	37.906364163347	1.002
17	185831	37.936364163347	1.002
17	186174	37.966364163347	1.002
17	186369	37.996364163347	1.002
17	186460	38.026364163347	1.002
17	186729	38.056364163347	1.002
17	186924	38.086364163347	1.002
17	187052	38.116364163347	1.002
17	187062	38.146364163347	1.002
17	187479	38.176364163347	1.002
17	187681	38.206364163347	1.002
17	187691	38.236364163347	1.002
17	188045	38.266364163347	1.002
17	188240	38.296364163347	1.002
17	188331	38.326364163347	1.002
17	188611	38.356364163347	1.002
17	188806	38.386364163347	1.002
17	188934	38.416364163347	1.002
17	188944	38.446364163347	1.002
17	189345	38.476364163347	1.002
17	189547	38.506364163347	1.002
17	189557	38.536364163347	1.002
17	189911	38.566364163347	1.002
17	190106	38.596364163347	1.002
17	190197	38.626364163347	1.002
17	190477	38.656364163347	1.002
17	190672	38.686364163347	1.002
17	190800	38.716364163347	1.002
17	190810	38.746364163347	1.002
17	191211	38.776364163347	1.002
17	191413	38.806364163347	1.002
17	191423	38.836364163347	1.002
17	191777	38.866364163347	1.002
17	191972	38.896364163347	1.002
17	192063	38.926364163347	1.002
17	192348	38.956364163347	1.002
17	192543	38.986364163347	1.002
17	192671	39.016364163347	1.002
17	192681	39.046364163347	1.002
17	193098	39.076364163347	1.002
17	193300	39.106364163347	1.002
17	193310	39.136364163347	1.002
17	193669	39.166364163347	1.002
17	193864	39.196364163347	1.002
17	193955	39.226364163347	1.002
17	194235	39.256364163347	1.002
17	194430	39.286364163347	1.002
17	194558	39.316364163347	1.002
17	194568	39.346364163347	1.002
17	194969	39.376364163347	1.002
17	195171	39.406364163347	1.002
17	195181	39.436364163347	1.002
17	195540	39.466364163347	1.002
17	195735	39.496364163347	1.002
17	195826	39.526364163347	1.002
17	196106	39.556364163347	1.002
17	196301	39.586364163347	1.002
17	196429	39.616364163347	1.002
17	196439	39.646364163347	1.002
17	196840	39.676364163347	1.002
17	197042	39.706364163347	1.002
17	197052	39.736364163347	1.002
17	197406	39.766364163347	1.002
17	197601	39.796364163347	1.002
17	197692	39.826364163347	1.002
17	197972	39.856364163347	1.002
17	198167	39.886364163347	1.002
17	198295	39.916364163347	1.002
17	198305	39.946364163347	1.002
17	198722	39.976364163347	1.002
17	198924	40.006364163347	1.002
17	198934	40.036364163347	1.002
17	199288	40.066364163347	1.002
17	199483	40.096364163347	1.002
17	199574	40.126364163347	1.002
17	199843	40.156364163347	1.002
17	200038	40.186364163347	1.002
17	200166	40.216364163347	1.002
17	200176	40.246364163347	1.002
17	200577	40.276364163347	1.002
17	200779	40.306364163347	1.002
17	200789	40.336364163347	1.002
17	201143	40.366364163347	1.002
17	201338	40.396364163347	1.002
17	201429	40.426364163347	1.002
17	201698	40.456364163347	1.002
17	201893	40.486364163347	1.002
17	202021	40.516364163347	1.002
17	202031	40.546364163347	1.002
17	202459	40.576364163347	1.002
17	202661	40.606364163347	1.002
17	202671	40.636364163347	1.002
17	203019	40.666364163347	1.002
17	203214	40.696364163347	1.002
17	203305	40.726364163347	1.002
17	203569	40.756364163347	1.002
17	203764	40.786364163347	1.002
17	203892	40.816364163347	1.002
17	203902	40.846364163347	1.002
17	204303	40.876364163347	1.002
17	204505	40.906364163347	1.002
17	204515	40.936364163347	1.002
17	204869	40.966364163347	1.002
17	205064	40.996364163347	1.002
17	205155	41.026364163347	1.002
17	205424	41.056364163347	1.002
17	205619	41.086364163347	1.002
17	205747	41.116364163347	1.002
17	205757	41.146364163347	1.002
17	206174	41.176364163347	1.002
17	206376	41.206364163347	1.002
17	206386	41.236364163347	1.002
17	206729	41.266364163347	1.002
17	206924	41.296364163347	1.002
17	207015	41.326364163347	1.002
17	207284	41.356364163347	1.002
17	207479	41.386364163347	1.002
17	207607	41.416364163347	1.002
17	207617	41.446364163347	1.002
17	208023	41.476364163347	1.002
17	208225	41.506364163347	1.002
17	208235	41.536364163347	1.002
17	208589	41.566364163347	1.002
17	208784	41.596364163347	1.002
17	208875	41.626364163347	1.002
17	209139	41.656364163347	1.002
17	209334	41.686364163347	1.002
17	209462	41.716364163347	1.002
17	209472	41.746364163347	1.002
17	209884	41.776364163347	1.002
17	210086	41.806364163347	1.002
17	210096	41.836364163347	1.002
17	210450	41.866364163347	1.002
17	210645	41.896364163347	1.002
17	210736	41.926364163347	1.002
17	211005	41.956364163347	1.002
17	211200	41.986364163347	1.002
17	211328	42.016364163347	1.002
17	211338	42.046364163347	1.002
17	211739	42.076364163347	1.002
17	211941	42.106364163347	1.002
17	211951	42.136364163347	1.002
17	212294	42.166364163347	1.002
17	212489	42.196364163347	1.002
17	212580	42.226364163347	1.002
17	212833	42.256364163347	1.002
17	213028	42.286364163347	1.002
17	213156	42.316364163347	1.002
17	213166	42.346364163347	1.002
17	213567	42.376364163347	1.002
17	213769	42.406364163347	1.002
17	213779	42.436364163347	1.002
17	214117	42.466364163347	1.002
17	214312	42.496364163347	1.002
17	214403	42.526364163347	1.002
17	214683	42.556364163347	1.002
17	214878	42.586364163347	1.002
17	215006	42.616364163347	1.002
17	215016	42.646364163347	1.002
17	215444	42.676364163347	1.002
17	215646	42.706364163347	1.002
17	215656	42.736364163347	1.002
17	215999	42.766364163347	1.002
17	216194	42.796364163347	1.002
17	216285	42.826364163347	1.002
17	216565	42.856364163347	1.002
17	216760	42.886364163347	1.002
17	216888	42.916364163347	1.002
17	216898	42.946364163347	1.002
17	217293	42.976364163347	1.002
17	217495	43.006364163347	1.002
17	217505	43.036364163347	1.002
17	217864	43.066364163347	1.002
17	218059	43.096364163347	1.002
17	218150	43.126364163347	1.002
17	218419	43.156364163347	1.002
17	218614	43.186364163347	1.002
17	218742	43.216364163347	1.002
17	218752	43.246364163347	1.002
17	219153	43.276364163347	1.002
17	219355	43.306364163347	1.002
17	219365	43.336364163347	1.002
17	219708	43.366364163347	1.002
17	219903	43.396364163347	1.002
17	219994	43.426364163347	1.002
17	220274	43.456364163347	1.002
17	220469	43.486364163347	1.002
17	220597	43.516364163347	1.002
17	220607	43.546364163347	1.002
17	221002	43.576364163347	1.002
17	221204	43.606364163347	1.002
17	221214	43.636364163347	1.002
17	221568	43.666364163347	1.002
17	221763	43.696364163347	1.002
17	221854	43.726364163347	1.002
17	222123	43.756364163347	1.002
17	222318	43.786364163347	1.002
17	222446	43.816364163347	1.002
17	222456	43.846364163347	1.002
17	222868	43.876364163347	1.002
17	223070	43.906364163347	1.002
17	223080	43.936364163347	1.002
17	223439	43.966364163347	1.002
17	223634	43.996364163347	1.002
17	223725	44.026364163347	1.002
17	223994	44.056364163347	1.002
17	224189	44.086364163347	1.002
17	224317	44.116364163347	1.002
17	224327	44.146364163347	1.002
17	224722	44.176364163347	1.002
17	224924	44.206364163347	1.002
17	224934	44.236364163347	1.002
17	225282	44.266364163347	1.002
17	225477	44.296364163347	1.002
17	225568	44.326364163347	1.002
17	225837	44.356364163347	1.002
17	226032	44.386364163347	1.002
17	226160	44.416364163347	1.002
17	226170	44.446364163347	1.002
17	226582	44.476364163347	1.002
17	226784	44.506364163347	1.002
17	226794	44.536364163347	1.002
17	227153	44.566364163347	1.002
17	227348	44.596364163347	1.002
17	227439	44.626364163347	1.002
17	227719	44.656364163347	1.002
17	227914	44.686364163347	1.002
17	228042	44.716364163347	1.002
17	228052	44.746364163347	1.002
17	228431	44.776364163347	1.002
17	228633	44.806364163347	1.002
17	228643	44.836364163347	1.002
17	229029	44.866364163347	1.002
17	229224	44.896364163347	1.002
17	229315	44.926364163347	1.002
17	229600	44.956364163347	1.002
17	229795	44.986364163347	1.002
17	229923	45.016364163347	1.002
17	229933	45.046364163347	1.002
17	230339	45.076364163347	1.002
17	230541	45.106364163347	1.002
17	230551	45.136364163347	1.002
17	230894	45.166364163347	1.002
17	231089	45.196364163347	1.002
17	231180	45.226364163347	1.002
17	231444	45.256364163347	1.002
17	231639	45.286364163347	1.002
17	231767	45.316364163347	1.002
17	231777	45.346364163347	1.002
17	232183	45.376364163347	1.002
17	232385	45.406364163347	1.002
17	232395	45.436364163347	1.002
17	232749	45.466364163347	1.002
17	232944	45.496364163347	1.002
17	233035	45.526364163347	1.002
17	233299	45.556364163347	1.002
17	233494	45.586364163347	1.002
17	233622	45.616364163347	1.002
17	233632	45.646364163347	1.002
17	234033	45.676364163347	1.002
17	234235	45.706364163347	1.002
17	234245	45.736364163347	1.002
17	234593	45.766364163347	1.002
17	234788	45.796364163347	1.002
17	234879	45.826364163347	1.002
17	235148	45.856364163347	1.002
17	235343	45.886364163347	1.002
17	235471	45.916364163347	1.002
17	235481	45.946364163347	1.002
17	235893	45.976364163347	1.002
17	236095	46.006364163347	1.002
17	236105	46.036364163347	1.002
17	236475	46.066364163347	1.002
17	236670	46.096364163347	1.002
17	236761	46.126364163347	1.002
17	237025	46.156364163347	1.002
17	237220	46.186364163347	1.002
17	237348	46.216364163347	1.002
17	237358	46.246364163347	1.002
17	237770	46.276364163347	1.002
17	237972	46.306364163347	1.002
17	237982	46.336364163347	1.002
17	238325	46.366364163347	1.002
17	238520	46.396364163347	1.002
17	238611	46.426364163347	1.002
17	238880	46.456364163347	1.002
17	239075	46.486364163347	1.002
17	239203	46.516364163347	1.002
17	239213	46.546364163347	1.002
17	239624	46.576364163347	1.002
17	239826	46.606364163347	1.002
17	239836	46.636364163347	1.002
17	240206	46.666364163347	1.002
17	240401	46.696364163347	1.002
17	240492	46.726364163347	1.002
17	240761	46.756364163347	1.002
17	240956	46.786364163347	1.002
17	241084	46.816364163347	1.002
17	241094	46.846364163347	1.002
17	241495	46.876364163347	1.002
17	241697	46.906364163347	1.002
17	241707	46.936364163347	1.002
17	242061	46.966364163347	1.002
17	242256	46.996364163347	1.002
17	242347	47.026364163347	1.002
17	242616	47.056364163347	1.002
17	242811	47.086364163347	1.002
17	242939	47.116364163347	1.002
17	242949	47.146364163347	1.002
17	243366	47.176364163347	1.002
17	243568	47.206364163347	1.002
17	243578	47.236364163347	1.002
17	243916	47.266364163347	1.002
17	244111	47.296364163347	1.002
17	244202	47.326364163347	1.002
17	244471	47.356364163347	1.002
17	244666	47.386364163347	1.002
17	244794	47.416364163347	1.002
17	244804	47.446364163347	1.002
17	245205	47.476364163347	1.002
17	245407	47.506364163347	1.002
17	245417	47.536364163347	1.002
17	245760	47.566364163347	1.002
17	245955	47.596364163347	1.002
17	246046	47.626364163347	1.002
17	246310	47.656364163347	1.002
17	246505	47.686364163347	1.002
17	246633	47.716364163347	1.002
17	246643	47.746364163347	1.002
17	247028	47.776364163347	1.002
17	247230	47.806364163347	1.002
17	247240	47.836364163347	1.002
17	247578	47.866364163347	1.002
17	247773	47.896364163347	1.002
17	247864	47.926364163347	1.002
17	248117	47.956364163347	1.002
17	248312	47.986364163347	1.002
17	248440	48.016364163347	1.002
17	248450	48.046364163347	1.002
17	248851	48.076364163347	1.002
17	249053	48.106364163347	1.002
17	249063	48.136364163347	1.002
17	249433	48.166364163347	1.002
17	249628	48.196364163347	1.002
17	249719	48.226364163347	1.002
17	249999	48.256364163347	1.002
17	250194	48.286364163347	1.002
17	250322	48.316364163347	1.002
17	250332	48.346364163347	1.002
17	250738	48.376364163347	1.002
17	250940	48.406364163347	1.002
17	250950	48.436364163347	1.002
17	251304	48.466364163347	1.002
17	251499	48.496364163347	1.002
17	251590	48.526364163347	1.002
17	251875	48.556364163347	1.002
17	252070	48.586364163347	1.002
17	252198	48.616364163347	1.002
17	252208	48.646364163347	1.002
17	252604	48.676364163347	1.002
17	252806	48.706364163347	1.002
17	252816	48.736364163347	1.002
17	253159	48.766364163347	1.002
17	253354	48.796364163347	1.002
17	253445	48.826364163347	1.002
17	253719	48.856364163347	1.002
17	253914	48.886364163347	1.002
17	254042	48.916364163347	1.002
17	254052	48.946364163347	1.002
17	254442	48.976364163347	1.002
17	254644	49.006364163347	1.002
17	254654	49.036364163347	1.002
17	254992	49.066364163347	1.002
17	255187	49.096364163347	1.002
17	255278	49.126364163347	1.002
17	255563	49.156364163347	1.002
17	255758	49.186364163347	1.002
17	255886	49.216364163347	1.002
17	255896	49.246364163347	1.002
17	256292	49.276364163347	1.002
17	256494	49.306364163347	1.002
17	256504	49.336364163347	1.002
17	256863	49.366364163347	1.002
17	257058	49.396364163347	1.002
17	257149	49.426364163347	1.002
17	257423	49.456364163347	1.002
17	257618	49.486364163347	1.002
17	257746	49.516364163347	1.002
17	257756	49.546364163347	1.002
17	258157	49.576364163347	1.002
17	258359	49.606364163347	1.002
17	258369	49.636364163347	1.002
17	258723	49.666364163347	1.002
17	258918	49.696364163347	1.002
17	259009	49.726364163347	1.002
17	259262	49.756364163347	1.002
17	259457	49.786364163347	1.002
17	259585	49.816364163347	1.002
17	259595	49.846364163347	1.002
17	260012	49.876364163347	1.002
17	260214	49.906364163347	1.002
17	260224	49.936364163347	1.002
17	260594	49.966364163347	1.002
17	260789	49.996364163347	1.002
17	260880	50.026364163347	1.002
17	261160	50.056364163347	1.002
17	261355	50.086364163347	1.002
17	261483	50.116364163347	1.002
17	261493	50.146364163347	1.002
17	261905	50.176364163347	1.002
17	262107	50.206364163347	1.002
17	262117	50.236364163347	1.002
17	262471	50.266364163347	1.002
17	262666	50.296364163347	1.002
17	262757	50.326364163347	1.002
17	263026	50.356364163347	1.002
17	263221	50.386364163347	1.002
17	263349	50.416364163347	1.002
17	263359	50.446364163347	1.002
17	263776	50.476364163347	1.002
17	263978	50.506364163347	1.002
17	263988	50.536364163347	1.002
17	264358	50.566364163347	1.002
17	264553	50.596364163347	1.002
17	264644	50.626364163347	1.002
17	264913	50.656364163347	1.002
17	265108	50.686364163347	1.002
17	265236	50.716364163347	1.002
17	265246	50.746364163347	1.002
17	265658	50.776364163347	1.002
17	265860	50.806364163347	1.002
17	265870	50.836364163347	1.002
17	266240	50.866364163347	1.002
17	266435	50.896364163347	1.002
17	266526	50.926364163347	1.002
17	266806	50.956364163347	1.002
17	267001	50.986364163347	1.002
17	267129	51.016364163347	1.002
17	267139	51.046364163347	1.002
17	267556	51.076364163347	1.002
17	267758	51.106364163347	1.002
17	267768	51.136364163347	1.002
17	268138	51.166364163347	1.002
17	268333	51.196364163347	1.002
17	268424	51.226364163347	1.002
17	268693	51.256364163347	1.002
17	268888	51.286364163347	1.002
17	269016	51.316364163347	1.002
17	269026	51.346364163347	1.002
17	269438	51.376364163347	1.002
17	269640	51.406364163347	1.002
17	269650	51.436364163347	1.002
17	269988	51.466364163347	1.002
17	270183	51.496364163347	1.002
17	270274	51.526364163347	1.002
17	270527	51.556364163347	1.002
17	270722	51.586364163347	1.002
17	270850	51.616364163347	1.002
17	270860	51.646364163347	1.002
17	271261	51.676364163347	1.002
17	271463	51.706364163347	1.002
17	271473	51.736364163347	1.002
17	271827	51.766364163347	1.002
17	272022	51.796364163347	1.002
17	272113	51.826364163347	1.002
17	272382	51.856364163347	1.002
17	272577	51.886364163347	1.002
17	272705	51.916364163347	1.002
17	272715	51.946364163347	1.002
17	273105	51.976364163347	1.002
17	273307	52.006364163347	1.002
17	273317	52.036364163347	1.002
17	273660	52.066364163347	1.002
17	273855	52.096364163347	1.002
17	273946	52.126364163347	1.002
17	274215	52.156364163347	1.002
17	274410	52.186364163347	1.002
17	274538	52.216364163347	1.002
17	274548	52.246364163347	1.002
17	274960	52.276364163347	1.002
17	275162	52.306364163347	1.002
17	275172	52.336364163347	1.002
17	275504	52.366364163347	1.002
17	275699	52.396364163347	1.002
17	275790	52.426364163347	1.002
17	276054	52.456364163347	1.002
17	276249	52.486364163347	1.002
17	276377	52.516364163347	1.002
17	276387	52.546364163347	1.002
17	276788	52.576364163347	1.002
17	276990	52.606364163347	1.002
17	277000	52.636364163347	1.002
17	277343	52.666364163347	1.002
17	277538	52.696364163347	1.002
17	277629	52.726364163347	1.002
17	277909	52.756364163347	1.002
17	278104	52.786364163347	1.002
17	278232	52.816364163347	1.002
17	278242	52.846364163347	1.002
17	278654	52.876364163347	1.002
17	278856	52.906364163347	1.002
17	278866	52.936364163347	1.002
17	279209	52.966364163347	1.002
17	279404	52.996364163347	1.002
17	279495	53.026364163347	1.002
17	279775	53.056364163347	1.002
17	279970	53.086364163347	1.002
17	280098	53.116364163347	1.002
17	280108	53.146364163347	1.002
17	280525	53.176364163347	1.002
17	280727	53.206364163347	1.002
17	280737	53.236364163347	1.002
17	281069	53.266364163347	1.002
17	281264	53.296364163347	1.002
17	281355	53.326364163347	1.002
17	281619	53.356364163347	1.002
17	281814	53.386364163347	1.002
17	281942	53.416364163347	1.002
17	281952	53.446364163347	1.002
17	282353	53.476364163347	1.002
17	282555	53.506364163347	1.002
17	282565	53.536364163347	1.002
17	282908	53.566364163347	1.002
17	283103	53.596364163347	1.002
17	283194	53.626364163347	1.002
17	283468	53.656364163347	1.002
17	283663	53.686364163347	1.002
17	283791	53.716364163347	1.002
17	283801	53.746364163347	1.002
17	284218	53.776364163347	1.002
17	284420	53.806364163347	1.002
17	284430	53.836364163347	1.002
17	284789	53.866364163347	1.002
17	284984	53.896364163347	1.002
17	285075	53.926364163347	1.002
17	285344	53.956364163347	1.002
17	285539	53.986364163347	1.002
17	285667	54.016364163347	1.002
17	285677	54.046364163347	1.002
17	286089	54.076364163347	1.002
17	286291	54.106364163347	1.002
17	286301	54.136364163347	1.002
17	286655	54.166364163347	1.002
17	286850	54.196364163347	1.002
17	286941	54.226364163347	1.002
17	287210	54.256364163347	1.002
17	287405	54.286364163347	1.002
17	287533	54.316364163347	1.002
17	287543	54.346364163347	1.002
17	287971	54.376364163347	1.002
17	288173	54.406364163347	1.002
17	288183	54.436364163347	1.002
17	288526	54.466364163347	1.002
17	288721	54.496364163347	1.002
17	288812	54.526364163347	1.002
17	289081	54.556364163347	1.002
17	289276	54.586364163347	1.002
17	289404	54.616364163347	1.002
17	289414	54.646364163347	1.002
17	289826	54.676364163347	1.002
17	290028	54.706364163347	1.002
17	290038	54.736364163347	1.002
17	290392	54.766364163347	1.002
17	290587	54.796364163347	1.002
17	290678	54.826364163347	1.002
17	290942	54.856364163347	1.002
17	291137	54.886364163347	1.002
17	291265	54.916364163347	1.002
17	291275	54.946364163347	1.002
17	291676	54.976364163347	1.002
17	291878	55.006364163347	1.002
17	291888	55.036364163347	1.002
17	292242	55.066364163347	1.002
17	292437	55.096364163347	1.002
17	292528	55.126364163347	1.002
17	292797	55.156364163347	1.002
17	292992	55.186364163347	1.002
17	293120	55.216364163347	1.002
17	293130	55.246364163347	1.002
17	293558	55.276364163347	1.002
17	293760	55.306364163347	1.002
17	293770	55.336364163347	1.002
17	294129	55.366364163347	1.002
17	294324	55.396364163347	1.002
17	294415	55.426364163347	1.002
17	294695	55.456364163347	1.002
17	294890	55.486364163347	1.002
17	295018	55.516364163347	1.002
17	295028	55.546364163347	1.002
17	295445	55.576364163347	1.002
17	295647	55.606364163347	1.002
17	295657	55.636364163347	1.002
17	295989	55.666364163347	1.002
17	296184	55.696364163347	1.002
17	296275	55.726364163347	1.002
17	296533	55.756364163347	1.002
17	296728	55.786364163347	1.002
17	296856	55.816364163347	1.002
17	296866	55.846364163347	1.002
17	297256	55.876364163347	1.002
17	297458	55.906364163347	1.002
17	297468	55.936364163347	1.002
17	297838	55.966364163347	1.002
17	298033	55.996364163347	1.002
17	298124	56.026364163347	1.002
17	298420	56.056364163347	1.002
17	298615	56.086364163347	1.002
17	298743	56.116364163347	1.002
17	298753	56.146364163347	1.002
17	299154	56.176364163347	1.002
17	299356	56.206364163347	1.002
17	299366	56.236364163347	1.002
17	299725	56.266364163347	1.002
17	299920	56.296364163347	1.002
17	300011	56.326364163347	1.002
17	300280	56.356364163347	1.002
17	300475	56.386364163347	1.002
17	300603	56.416364163347	1.002
17	300613	56.446364163347	1.002
17	301009	56.476364163347	1.002
17	301211	56.506364163347	1.002
17	301221	56.536364163347	1.002
17	301553	56.566364163347	1.002
17	301748	56.596364163347	1.002
17	301839	56.626364163347	1.002
17	302097	56.656364163347	1.002
17	302292	56.686364163347	1.002
17	302420	56.716364163347	1.002
17	302430	56.746364163347	1.002
17	302826	56.776364163347	1.002
17	303028	56.806364163347	1.002
17	303038	56.836364163347	1.002
17	303397	56.866364163347	1.002
17	303592	56.896364163347	1.002
17	303683	56.926364163347	1.002
17	303963	56.956364163347	1.002
17	304158	56.986364163347	1.002
17	304286	57.016364163347	1.002
17	304296	57.046364163347	1.002
17	304713	57.076364163347	1.002
17	304915	57.106364163347	1.002
17	304925	57.136364163347	1.002
17	305263	57.166364163347	1.002
17	305458	57.196364163347	1.002
17	305549	57.226364163347	1.002
17	305829	57.256364163347	1.002
17	306024	57.286364163347	1.002
17	306152	57.316364163347	1.002
17	306162	57.346364163347	1.002
17	306552	57.376364163347	1.002
17	306754	57.406364163347	1.002
17	306764	57.436364163347	1.002
17	307107	57.466364163347	1.002
17	307302	57.496364163347	1.002
17	307393	57.526364163347	1.002
17	307667	57.556364163347	1.002
17	307862	57.586364163347	1.002
17	307990	57.616364163347	1.002
17	308000	57.646364163347	1.002
17	308406	57.676364163347	1.002
17	308608	57.706364163347	1.002
17	308618	57.736364163347	1.002
17	308961	57.766364163347	1.002
17	309156	57.796364163347	1.002
17	309247	57.826364163347	1.002
17	309516	57.856364163347	1.002
17	309711	57.886364163347	1.002
17	309839	57.916364163347	1.002
17	309849	57.946364163347	1.002
17	310266	57.976364163347	1.002
17	310468	58.006364163347	1.002
17	310478	58.036364163347	1.002
17	310821	58.066364163347	1.002
17	311016	58.096364163347	1.002
17	311107	58.126364163347	1.002
17	311387	58.156364163347	1.002
17	311582	58.186364163347	1.002
17	311710	58.216364163347	1.002
17	311720	58.246364163347	1.002
17	312110	58.276364163347	1.002
17	312312	58.306364163347	1.002
17	312322	58.336364163347	1.002
17	312670	58.366364163347	1.002
17	312865	58.396364163347	1.002
17	312956	58.426364163347	1.002
17	313252	58.456364163347	1.002
17	313447	58.486364163347	1.002
17	313575	58.516364163347	1.002
17	313585	58.546364163347	1.002
17	313980	58.576364163347	1.002
17	314182	58.606364163347	1.002
17	314192	58.636364163347	1.002
17	314546	58.666364163347	1.002
17	314741	58.696364163347	1.002
17	314832	58.726364163347	1.002
17	315112	58.756364163347	1.002
17	315307	58.786364163347	1.002
17	315435	58.816364163347	1.002
17	315445	58.846364163347	1.002
17	315851	58.876364163347	1.002
17	316053	58.906364163347	1.002
17	316063	58.936364163347	1.002
17	316417	58.966364163347	1.002
17	316612	58.996364163347	1.002
17	316703	59.026364163347	1.002
17	316972	59.056364163347	1.002
17	317167	59.086364163347	1.002
17	317295	59.116364163347	1.002
17	317305	59.146364163347	1.002
17	317701	59.176364163347	1.002
17	317903	59.206364163347	1.002
17	317913	59.236364163347	1.002
17	318256	59.266364163347	1.002
17	318451	59.296364163347	1.002
17	318542	59.326364163347	1.002
17	318827	59.356364163347	1.002
17	319022	59.386364163347	1.002
17	319150	59.416364163347	1.002
17	319160	59.446364163347	1.002
17	319566	59.476364163347	1.002
17	319768	59.506364163347	1.002
17	319778	59.536364163347	1.002
17	320132	59.566364163347	1.002
17	320327	59.596364163347	1.002
17	320418	59.626364163347	1.002
17	320698	59.656364163347	1.002
17	320893	59.686364163347	1.002
17	321021	59.716364163347	1.002
17	321031	59.746364163347	1.002
17	321443	59.776364163347	1.002
17	321645	59.806364163347	1.002
17	321655	59.836364163347	1.002
17	321998	59.866364163347	1.002
17	322193	59.896364163347	1.002
17	322284	59.926364163347	1.002
17	322537	59.956364163347	1.002
17	322732	59.986364163347	1.002
17	322860	60.016364163347	1.002
17	322870	60.046364163347	1.002
17	323276	60.076364163347	1.002
17	323478	60.106364163347	1.002
17	323488	60.136364163347	1.002
17	323842	60.166364163347	1.002
17	324037	60.196364163347	1.002
17	324128	60.226364163347	1.002
17	324397	60.256364163347	1.002
17	324592	60.286364163347	1.002
17	324720	60.316364163347	1.002
17	324730	60.346364163347	1.002
17	325131	60.376364163347	1.002
17	325333	60.406364163347	1.002
17	325343	60.436364163347	1.002
17	325686	60.466364163347	1.002
17	325881	60.496364163347	1.002
17	325972	60.526364163347	1.002
17	326230	60.556364163347	1.002
17	326425	60.586364163347	1.002
17	326553	60.616364163347	1.002
17	326563	60.646364163347	1.002
17	326964	60.676364163347	1.002
17	327166	60.706364163347	1.002
17	327176	60.736364163347	1.002
17	327519	60.766364163347	1.002
17	327714	60.796364163347	1.002
17	327805	60.826364163347	1.002
17	328063	60.856364163347	1.002
17	328258	60.886364163347	1.002
17	328386	60.916364163347	1.002
17	328396	60.946364163347	1.002
17	328813	60.976364163347	1.002
17	329015	61.006364163347	1.002
17	329025	61.036364163347	1.002
17	329384	61.066364163347	1.002
17	329579	61.096364163347	1.002
17	329670	61.126364163347	1.002
17	329950	61.156364163347	1.002
17	330145	61.186364163347	1.002
17	330273	61.216364163347	1.002
17	330283	61.246364163347	1.002
17	330673	61.276364163347	1.002
17	330875	61.306364163347	1.002
17	330885	61.336364163347	1.002
17	331239	61.366364163347	1.002
17	331434	61.396364163347	1.002
17	331525	61.426364163347	1.002
17	331799	61.456364163347	1.002
17	331994	61.486364163347	1.002
17	332122	61.516364163347	1.002
17	332132	61.546364163347	1.002
17	332538	61.576364163347	1.002
16	15	0.346364163347	1
16	32	0.376364163347	2
16	50	0.406364163347	3
16	52	0.436364163347	4
16	82	0.466364163347	5
16	97	0.496364163347	6
16	115	0.526364163347	7
16	132	0.556364163347	8
16	147	0.586364163347	9
16	165	0.616364163347	10
16	167	0.646364163347	11
16	197	0.676364163347	12
16	215	0.706364163347	13
16	217	0.736364163347	14
16	247	0.766364163347	15
16	262	0.796364163347	16
16	280	0.826364163347	17
16	297	0.856364163347	18
16	312	0.886364163347	19
16	330	0.916364163347	20
16	332	0.946364163347	21
16	362	0.976364163347	22
16	380	1.006364163347	23
16	382	1.036364163347	24
16	412	1.066364163347	25
16	427	1.096364163347	26
16	445	1.126364163347	27
16	462	1.156364163347	28
16	477	1.186364163347	29
16	495	1.216364163347	30
16	497	1.246364163347	31
16	527	1.276364163347	32
16	545	1.306364163347	33
16	547	1.336364163347	34
16	577	1.366364163347	35
16	592	1.396364163347	36
16	610	1.426364163347	37
16	627	1.456364163347	38
16	642	1.486364163347	39
16	660	1.516364163347	40
16	662	1.546364163347	41
16	692	1.576364163347	42
16	710	1.606364163347	43
16	712	1.636364163347	44
16	742	1.666364163347	45
16	757	1.696364163347	46
16	775	1.726364163347	47
16	792	1.756364163347	48
16	807	1.786364163347	49
16	825	1.816364163347	50
16	827	1.846364163347	51
16	857	1.876364163347	52
16	875	1.906364163347	53
16	877	1.936364163347	54
16	907	1.966364163347	55
16	922	1.996364163347	56
16	940	2.026364163347	57
16	957	2.056364163347	58
16	972	2.086364163347	59
16	990	2.116364163347	60
16	992	2.146364163347	61
16	1022	2.176364163347	62
16	1040	2.206364163347	63
16	1042	2.236364163347	64
16	1072	2.266364163347	65
16	1087	2.296364163347	66
16	1105	2.326364163347	67
16	1122	2.356364163347	68
16	1137	2.386364163347	69
16	1155	2.416364163347	70
16	1157	2.446364163347	71
16	1187	2.476364163347	72
16	1205	2.506364163347	73
16	1207	2.536364163347	74
16	1237	2.566364163347	75
16	1252	2.596364163347	76
16	1270	2.626364163347	77
16	1287	2.656364163347	78
16	1302	2.686364163347	79
16	1320	2.716364163347	80
16	1322	2.746364163347	81
16	1352	2.776364163347	82
16	1370	2.806364163347	83
16	1372	2.836364163347	84
16	1402	2.866364163347	85
16	1417	2.896364163347	86
16	1435	2.926364163347	87
16	1452	2.956364163347	88
16	1467	2.986364163347	89
16	1485	3.016364163347	90
16	1487	3.046364163347	91
16	1517	3.076364163347	92
16	1535	3.106364163347	93
16	1537	3.136364163347	94
16	1580	3.166364163347	95
16	1601	3.196364163347	96
16	1626	3.226364163347	97
16	1650	3.256364163347	98
16	1671	3.286364163347	99
16	1696	3.316364163347	100
16	1698	3.346364163347	101
16	1762	3.376364163347	103
16	1808	3.406364163347	105
16	1812	3.436364163347	107
16	1895	3.466364163347	109
16	1937	3.496364163347	111
16	1964	3.526364163347	113
16	2028	3.556364163347	115
16	2070	3.586364163347	117
16	2097	3.616364163347	119
16	2101	3.646364163347	121
16	2189	3.676364163347	123
16	2235	3.706364163347	125
16	2239	3.736364163347	127
16	2322	3.766364163347	129
16	2364	3.796364163347	131
16	2391	3.826364163347	133
16	2455	3.856364163347	135
16	2497	3.886364163347	137
16	2524	3.916364163347	139
16	2528	3.946364163347	141
16	2630	3.976364163347	143
16	2676	4.006364163347	145
16	2680	4.036364163347	147
16	2763	4.066364163347	149
16	2805	4.096364163347	151
16	2832	4.126364163347	153
16	2896	4.156364163347	155
16	2938	4.186364163347	157
16	2965	4.216364163347	159
16	2969	4.246364163347	161
16	3064	4.276364163347	163
16	3110	4.306364163347	165
16	3114	4.336364163347	167
16	3197	4.366364163347	169
16	3239	4.396364163347	171
16	3266	4.426364163347	173
16	3323	4.456364163347	175
16	3365	4.486364163347	177
16	3392	4.516364163347	179
16	3396	4.546364163347	181
16	3498	4.576364163347	183
16	3544	4.606364163347	185
16	3548	4.636364163347	187
16	3631	4.666364163347	189
16	3673	4.696364163347	191
16	3700	4.726364163347	193
16	3764	4.756364163347	195
16	3806	4.786364163347	197
16	3833	4.816364163347	199
16	3837	4.846364163347	201
16	3932	4.876364163347	203
16	3978	4.906364163347	205
16	3982	4.936364163347	207
16	4065	4.966364163347	209
16	4107	4.996364163347	211
16	4134	5.026364163347	213
16	4198	5.056364163347	215
16	4240	5.086364163347	217
16	4267	5.116364163347	219
16	4271	5.146364163347	221
16	4366	5.176364163347	223
16	4412	5.206364163347	225
16	4416	5.236364163347	227
16	4499	5.266364163347	229
16	4541	5.296364163347	231
16	4568	5.326364163347	233
16	4632	5.356364163347	235
16	4674	5.386364163347	237
16	4701	5.416364163347	239
16	4705	5.446364163347	241
16	4807	5.476364163347	243
16	4853	5.506364163347	245
16	4857	5.536364163347	247
16	4940	5.566364163347	249
16	4982	5.596364163347	251
16	5009	5.626364163347	253
16	5066	5.656364163347	255
16	5108	5.686364163347	257
16	5135	5.716364163347	259
16	5139	5.746364163347	261
16	5234	5.776364163347	263
16	5280	5.806364163347	265
16	5284	5.836364163347	267
16	5367	5.866364163347	269
16	5409	5.896364163347	271
16	5436	5.926364163347	273
16	5500	5.956364163347	275
16	5542	5.986364163347	277
16	5569	6.016364163347	279
16	5573	6.046364163347	281
16	5675	6.076364163347	283
16	5721	6.106364163347	285
16	5726	6.136364163347	288
16	5861	6.166364163347	291
16	5942	6.196364163347	294
16	6003	6.226364163347	297
16	6113	6.256364163347	300
16	6194	6.286364163347	303
16	6255	6.316364163347	306
16	6261	6.346364163347	309
16	6426	6.376364163347	312
16	6512	6.406364163347	315
16	6518	6.436364163347	318
16	6678	6.466364163347	321
16	6759	6.496364163347	324
16	6820	6.526364163347	327
16	6913	6.556364163347	330
16	6994	6.586364163347	333
16	7055	6.616364163347	336
16	7061	6.646364163347	339
16	7236	6.676364163347	342
16	7322	6.706364163347	345
16	7328	6.736364163347	348
16	7488	6.766364163347	351
16	7569	6.796364163347	354
16	7630	6.826364163347	357
16	7740	6.856364163347	360
16	7821	6.886364163347	363
16	7882	6.916364163347	366
16	7888	6.946364163347	369
16	8063	6.976364163347	372
16	8149	7.006364163347	375
16	8155	7.036364163347	378
16	8305	7.066364163347	381
16	8386	7.096364163347	384
16	8447	7.126364163347	387
16	8547	7.156364163347	390
16	8628	7.186364163347	393
16	8689	7.216364163347	396
16	8695	7.246364163347	399
16	8860	7.276364163347	402
16	8946	7.306364163347	405
16	8952	7.336364163347	408
16	9112	7.366364163347	411
16	9193	7.396364163347	414
16	9254	7.426364163347	417
16	9354	7.456364163347	420
16	9435	7.486364163347	423
16	9496	7.516364163347	426
16	9502	7.546364163347	429
16	9677	7.576364163347	432
16	9763	7.606364163347	435
16	9769	7.636364163347	438
16	9929	7.666364163347	441
16	10010	7.696364163347	444
16	10071	7.726364163347	447
16	10171	7.756364163347	450
16	10252	7.786364163347	453
16	10313	7.816364163347	456
16	10319	7.846364163347	459
16	10487	7.876364163347	462
16	10573	7.906364163347	465
16	10579	7.936364163347	468
16	10739	7.966364163347	471
16	10820	7.996364163347	474
16	10881	8.026364163347	477
16	10981	8.056364163347	480
16	11062	8.086364163347	483
16	11123	8.116364163347	486
16	11129	8.146364163347	489
16	11304	8.176364163347	492
16	11390	8.206364163347	495
16	11396	8.236364163347	498
16	11546	8.266364163347	501
16	11627	8.296364163347	504
16	11688	8.326364163347	507
16	11788	8.356364163347	510
16	11869	8.386364163347	513
16	11930	8.416364163347	516
16	11936	8.446364163347	519
16	12101	8.476364163347	522
16	12187	8.506364163347	525
16	12193	8.536364163347	528
16	12343	8.566364163347	531
16	12424	8.596364163347	534
16	12485	8.626364163347	537
16	12585	8.656364163347	540
16	12666	8.686364163347	543
16	12727	8.716364163347	546
16	12733	8.746364163347	549
16	12908	8.776364163347	552
16	12994	8.806364163347	555
16	13000	8.836364163347	558
16	13140	8.866364163347	561
16	13221	8.896364163347	564
16	13282	8.926364163347	567
16	13382	8.956364163347	570
16	13463	8.986364163347	573
16	13524	9.016364163347	576
16	13530	9.046364163347	579
16	13705	9.076364163347	582
16	13791	9.106364163347	585
16	13797	9.136364163347	588
16	13970	9.166364163347	591
16	14069	9.196364163347	594
16	14143	9.226364163347	597
16	14278	9.256364163347	600
16	14377	9.286364163347	603
16	14451	9.316364163347	606
16	14457	9.346364163347	609
16	14672	9.376364163347	612
16	14777	9.406364163347	615
16	14783	9.436364163347	618
16	14954	9.466364163347	621
16	15053	9.496364163347	624
16	15127	9.526364163347	627
16	15249	9.556364163347	630
16	15348	9.586364163347	633
16	15422	9.616364163347	636
16	15428	9.646364163347	639
16	15676	9.676364163347	643
16	15814	9.706364163347	647
16	15822	9.736364163347	651
16	16049	9.766364163347	655
16	16181	9.796364163347	659
16	16257	9.826364163347	663
16	16431	9.856364163347	667
16	16563	9.886364163347	671
16	16670	9.916364163347	675
16	16678	9.946364163347	679
16	16932	9.976364163347	683
16	17070	10.006364163347	687
16	17078	10.036364163347	691
16	17326	10.066364163347	695
16	17458	10.096364163347	699
16	17534	10.126364163347	703
16	17720	10.156364163347	707
16	17852	10.186364163347	711
16	17959	10.216364163347	715
16	17967	10.246364163347	719
16	18233	10.276364163347	723
16	18371	10.306364163347	727
16	18379	10.336364163347	731
16	18618	10.366364163347	735
16	18750	10.396364163347	739
16	18826	10.426364163347	743
16	19003	10.456364163347	747
16	19135	10.486364163347	751
16	19242	10.516364163347	755
16	19250	10.546364163347	759
16	19503	10.576364163347	763
16	19641	10.606364163347	767
16	19649	10.636364163347	771
16	19897	10.666364163347	775
16	20029	10.696364163347	779
16	20105	10.726364163347	783
16	20278	10.756364163347	787
16	20410	10.786364163347	791
16	20517	10.816364163347	795
16	20525	10.846364163347	799
16	20791	10.876364163347	803
16	20929	10.906364163347	807
16	20937	10.936364163347	811
16	21185	10.966364163347	815
16	21317	10.996364163347	819
16	21393	11.026364163347	823
16	21566	11.056364163347	827
16	21698	11.086364163347	831
16	21805	11.116364163347	835
16	21813	11.146364163347	839
16	22083	11.176364163347	843
16	22221	11.206364163347	847
[...]
14	228627	44.800071831871	0.002
14	228649	44.850071831871	0.001
14	229303	44.900071831871	0.002
14	229325	44.950071831871	0.001
14	229913	45.000071831871	0.002
14	229937	45.050071831871	0.001
14	230535	45.100071831871	0.002
14	230557	45.150071831871	0.001
14	231168	45.200071831871	0.002
14	231190	45.250071831871	0.001
14	231757	45.300071831871	0.002
14	231781	45.350071831871	0.001
14	232379	45.400071831871	0.002
14	232401	45.450071831871	0.001
14	233023	45.500071831871	0.002
14	233045	45.550071831871	0.001
14	233612	45.600071831871	0.002
14	233636	45.650071831871	0.001
14	234229	45.700071831871	0.002
14	234251	45.750071831871	0.001
14	234867	45.800071831871	0.002
14	234889	45.850071831871	0.001
14	235461	45.900071831871	0.002
14	235485	45.950071831871	0.001
14	236089	46.000071831871	0.002
14	236111	46.050071831871	0.001
14	236749	46.100071831871	0.002
14	236771	46.150071831871	0.001
14	237338	46.200071831871	0.002
14	237362	46.250071831871	0.001
14	237966	46.300071831871	0.002
14	237988	46.350071831871	0.001
14	238599	46.400071831871	0.002
14	238621	46.450071831871	0.001
14	239193	46.500071831871	0.002
14	239217	46.550071831871	0.001
14	239820	46.600071831871	0.002
14	239842	46.650071831871	0.001
14	240480	46.700071831871	0.002
14	240502	46.750071831871	0.001
14	241074	46.800071831871	0.002
14	241098	46.850071831871	0.001
14	241691	46.900071831871	0.002
14	241713	46.950071831871	0.001
14	242335	47.000071831871	0.002
14	242357	47.050071831871	0.001
14	242929	47.100071831871	0.002
14	242953	47.150071831871	0.001
14	243562	47.200071831871	0.002
14	243584	47.250071831871	0.001
14	244190	47.300071831871	0.002
14	244212	47.350071831871	0.001
14	244784	47.400071831871	0.002
14	244808	47.450071831871	0.001
14	245401	47.500071831871	0.002
14	245423	47.550071831871	0.001
14	246034	47.600071831871	0.002
14	246056	47.650071831871	0.001
14	246623	47.700071831871	0.002
14	246647	47.750071831871	0.001
14	247224	47.800071831871	0.002
14	247246	47.850071831871	0.001
14	247852	47.900071831871	0.002
14	247874	47.950071831871	0.001
14	248430	48.000071831871	0.002
14	248454	48.050071831871	0.001
14	249047	48.100071831871	0.002
14	249069	48.150071831871	0.001
14	249707	48.200071831871	0.002
14	249729	48.250071831871	0.001
14	250312	48.300071831871	0.002
14	250336	48.350071831871	0.001
14	250934	48.400071831871	0.002
14	250956	48.450071831871	0.001
14	251578	48.500071831871	0.002
14	251600	48.550071831871	0.001
14	252188	48.600071831871	0.002
14	252212	48.650071831871	0.001
14	252800	48.700071831871	0.002
14	252822	48.750071831871	0.001
14	253433	48.800071831871	0.002
14	253455	48.850071831871	0.001
14	254032	48.900071831871	0.002
14	254056	48.950071831871	0.001
14	254638	49.000071831871	0.002
14	254660	49.050071831871	0.001
14	255266	49.100071831871	0.002
14	255288	49.150071831871	0.001
14	255876	49.200071831871	0.002
14	255900	49.250071831871	0.001
14	256488	49.300071831871	0.002
14	256510	49.350071831871	0.001
14	257137	49.400071831871	0.002
14	257159	49.450071831871	0.001
14	257736	49.500071831871	0.002
14	257760	49.550071831871	0.001
14	258353	49.600071831871	0.002
14	258375	49.650071831871	0.001
14	258997	49.700071831871	0.002
14	259019	49.750071831871	0.001
14	259575	49.800071831871	0.002
14	259599	49.850071831871	0.001
14	260208	49.900071831871	0.002
14	260230	49.950071831871	0.001
14	260868	50.000071831871	0.002
14	260890	50.050071831871	0.001
14	261473	50.100071831871	0.002
14	261497	50.150071831871	0.001
14	262101	50.200071831871	0.002
14	262123	50.250071831871	0.001
14	262745	50.300071831871	0.002
14	262767	50.350071831871	0.001
14	263339	50.400071831871	0.002
14	263363	50.450071831871	0.001
14	263972	50.500071831871	0.002
14	263994	50.550071831871	0.001
14	264632	50.600071831871	0.002
14	264654	50.650071831871	0.001
14	265226	50.700071831871	0.002
14	265250	50.750071831871	0.001
14	265854	50.800071831871	0.002
14	265876	50.850071831871	0.001
14	266514	50.900071831871	0.002
14	266536	50.950071831871	0.001
14	267119	51.000071831871	0.002
14	267143	51.050071831871	0.001
14	267752	51.100071831871	0.002
14	267774	51.150071831871	0.001
14	268412	51.200071831871	0.002
14	268434	51.250071831871	0.001
14	269006	51.300071831871	0.002
14	269030	51.350071831871	0.001
14	269634	51.400071831871	0.002
14	269656	51.450071831871	0.001
14	270262	51.500071831871	0.002
14	270284	51.550071831871	0.001
14	270840	51.600071831871	0.002
14	270864	51.650071831871	0.001
14	271457	51.700071831871	0.002
14	271479	51.750071831871	0.001
14	272101	51.800071831871	0.002
14	272123	51.850071831871	0.001
14	272695	51.900071831871	0.002
14	272719	51.950071831871	0.001
14	273301	52.000071831871	0.002
14	273323	52.050071831871	0.001
14	273934	52.100071831871	0.002
14	273956	52.150071831871	0.001
14	274528	52.200071831871	0.002
14	274552	52.250071831871	0.001
14	275156	52.300071831871	0.002
14	275178	52.350071831871	0.001
14	275778	52.400071831871	0.002
14	275800	52.450071831871	0.001
14	276367	52.500071831871	0.002
14	276391	52.550071831871	0.001
14	276984	52.600071831871	0.002
14	277006	52.650071831871	0.001
14	277617	52.700071831871	0.002
14	277639	52.750071831871	0.001
14	278222	52.800071831871	0.002
14	278246	52.850071831871	0.001
14	278850	52.900071831871	0.002
14	278872	52.950071831871	0.001
14	279483	53.000071831871	0.002
14	279505	53.050071831871	0.001
14	280088	53.100071831871	0.002
14	280112	53.150071831871	0.001
14	280721	53.200071831871	0.002
14	280743	53.250071831871	0.001
14	281343	53.300071831871	0.002
14	281365	53.350071831871	0.001
14	281932	53.400071831871	0.002
14	281956	53.450071831871	0.001
14	282549	53.500071831871	0.002
14	282571	53.550071831871	0.001
14	283182	53.600071831871	0.002
14	283204	53.650071831871	0.001
14	283781	53.700071831871	0.002
14	283805	53.750071831871	0.001
14	284414	53.800071831871	0.002
14	284436	53.850071831871	0.001
14	285063	53.900071831871	0.002
14	285085	53.950071831871	0.001
14	285657	54.000071831871	0.002
14	285681	54.050071831871	0.001
14	286285	54.100071831871	0.002
14	286307	54.150071831871	0.001
14	286929	54.200071831871	0.002
14	286951	54.250071831871	0.001
14	287523	54.300071831871	0.002
14	287547	54.350071831871	0.001
14	288167	54.400071831871	0.002
14	288189	54.450071831871	0.001
14	288800	54.500071831871	0.002
14	288822	54.550071831871	0.001
14	289394	54.600071831871	0.002
14	289418	54.650071831871	0.001
14	290022	54.700071831871	0.002
14	290044	54.750071831871	0.001
14	290666	54.800071831871	0.002
14	290688	54.850071831871	0.001
14	291255	54.900071831871	0.002
14	291279	54.950071831871	0.001
14	291872	55.000071831871	0.002
14	291894	55.050071831871	0.001
14	292516	55.100071831871	0.002
14	292538	55.150071831871	0.001
14	293110	55.200071831871	0.002
14	293134	55.250071831871	0.001
14	293754	55.300071831871	0.002
14	293776	55.350071831871	0.001
14	294403	55.400071831871	0.002
14	294425	55.450071831871	0.001
14	295008	55.500071831871	0.002
14	295032	55.550071831871	0.001
14	295641	55.600071831871	0.002
14	295663	55.650071831871	0.001
14	296263	55.700071831871	0.002
14	296285	55.750071831871	0.001
14	296846	55.800071831871	0.002
14	296870	55.850071831871	0.001
14	297452	55.900071831871	0.002
14	297474	55.950071831871	0.001
14	298112	56.000071831871	0.002
14	298134	56.050071831871	0.001
14	298733	56.100071831871	0.002
14	298757	56.150071831871	0.001
14	299350	56.200071831871	0.002
14	299372	56.250071831871	0.001
14	299999	56.300071831871	0.002
14	300021	56.350071831871	0.001
14	300593	56.400071831871	0.002
14	300617	56.450071831871	0.001
14	301205	56.500071831871	0.002
14	301227	56.550071831871	0.001
14	301827	56.600071831871	0.002
14	301849	56.650071831871	0.001
14	302410	56.700071831871	0.002
14	302434	56.750071831871	0.001
14	303022	56.800071831871	0.002
14	303044	56.850071831871	0.001
14	303671	56.900071831871	0.002
14	303693	56.950071831871	0.001
14	304276	57.000071831871	0.002
14	304300	57.050071831871	0.001
14	304909	57.100071831871	0.002
14	304931	57.150071831871	0.001
14	305537	57.200071831871	0.002
14	305559	57.250071831871	0.001
14	306142	57.300071831871	0.002
14	306166	57.350071831871	0.001
14	306748	57.400071831871	0.002
14	306770	57.450071831871	0.001
14	307381	57.500071831871	0.002
14	307403	57.550071831871	0.001
14	307980	57.600071831871	0.002
14	308004	57.650071831871	0.001
14	308602	57.700071831871	0.002
14	308624	57.750071831871	0.001
14	309235	57.800071831871	0.002
14	309257	57.850071831871	0.001
14	309829	57.900071831871	0.002
14	309853	57.950071831871	0.001
14	310462	58.000071831871	0.002
14	310484	58.050071831871	0.001
14	311095	58.100071831871	0.002
14	311117	58.150071831871	0.001
14	311700	58.200071831871	0.002
14	311724	58.250071831871	0.001
14	312306	58.300071831871	0.002
14	312328	58.350071831871	0.001
14	312944	58.400071831871	0.002
14	312966	58.450071831871	0.001
14	313565	58.500071831871	0.002
14	313589	58.550071831871	0.001
14	314176	58.600071831871	0.002
14	314198	58.650071831871	0.001
14	314820	58.700071831871	0.002
14	314842	58.750071831871	0.001
14	315425	58.800071831871	0.002
14	315449	58.850071831871	0.001
14	316047	58.900071831871	0.002
14	316069	58.950071831871	0.001
14	316691	59.000071831871	0.002
14	316713	59.050071831871	0.001
14	317285	59.100071831871	0.002
14	317309	59.150071831871	0.001
14	317897	59.200071831871	0.002
14	317919	59.250071831871	0.001
14	318530	59.300071831871	0.002
14	318552	59.350071831871	0.001
14	319140	59.400071831871	0.002
14	319164	59.450071831871	0.001
14	319762	59.500071831871	0.002
14	319784	59.550071831871	0.001
14	320406	59.600071831871	0.002
14	320428	59.650071831871	0.001
14	321011	59.700071831871	0.002
14	321035	59.750071831871	0.001
14	321639	59.800071831871	0.002
14	321661	59.850071831871	0.001
14	322272	59.900071831871	0.002
14	322294	59.950071831871	0.001
14	322850	60.000071831871	0.002
14	322874	60.050071831871	0.001
14	323472	60.100071831871	0.002
14	323494	60.150071831871	0.001
14	324116	60.200071831871	0.002
14	324138	60.250071831871	0.001
14	324710	60.300071831871	0.002
14	324734	60.350071831871	0.001
14	325327	60.400071831871	0.002
14	325349	60.450071831871	0.001
14	325960	60.500071831871	0.002
14	325982	60.550071831871	0.001
14	326543	60.600071831871	0.002
14	326567	60.650071831871	0.001
14	327160	60.700071831871	0.002
14	327182	60.750071831871	0.001
14	327793	60.800071831871	0.002
14	327815	60.850071831871	0.001
14	328376	60.900071831871	0.002
14	328400	60.950071831871	0.001
14	329009	61.000071831871	0.002
14	329031	61.050071831871	0.001
14	329658	61.100071831871	0.002
14	329680	61.150071831871	0.001
14	330263	61.200071831871	0.002
14	330287	61.250071831871	0.001
14	330869	61.300071831871	0.002
14	330891	61.350071831871	0.001
14	331513	61.400071831871	0.002
14	331535	61.450071831871	0.001
14	332112	61.500071831871	0.002
14	332136	61.550071831871	0.001
14	332734	61.600071831871	0.002
14	332751	61.650071831871	0.001
14	333174	61.700071831871	0.002
14	333193	61.750071831871	0.001
14	333579	61.800071831871	0.002
14	333598	61.850071831871	0.001
14	334026	61.900071831871	0.002
14	334043	61.950071831871	0.001
14	334453	62.000071831871	0.002
14	334472	62.050071831871	0.001
14	334880	62.100071831871	0.002
14	334899	62.150071831871	0.001
14	335309	62.200071831871	0.002
14	335326	62.250071831871	0.001
14	335736	62.300071831871	0.002
14	335755	62.350071831871	0.001
14	336154	62.400071831871	0.002
14	336173	62.450071831871	0.001
14	336592	62.500071831871	0.002
14	336609	62.550071831871	0.001
14	337019	62.600071831871	0.002
14	337038	62.650071831871	0.001
14	337446	62.700071831871	0.002
14	337465	62.750071831871	0.001
14	337893	62.800071831871	0.002
14	337910	62.850071831871	0.001
14	338320	62.900071831871	0.002
14	338339	62.950071831871	0.001
14	338734	63.000071831871	0.002
14	338753	63.050071831871	0.001
14	339172	63.100071831871	0.002
14	339189	63.150071831871	0.001
14	339612	63.200071831871	0.002
14	339631	63.250071831871	0.001
14	340013	63.300071831871	0.002
14	340032	63.350071831871	0.001
14	340464	63.400071831871	0.002
14	340481	63.450071831871	0.001
14	340878	63.500071831871	0.002
14	340897	63.550071831871	0.001
14	341292	63.600071831871	0.002
14	341311	63.650071831871	0.001
14	341739	63.700071831871	0.002
14	341756	63.750071831871	0.001
14	342166	63.800071831871	0.002
14	342185	63.850071831871	0.001
14	342580	63.900071831871	0.002
14	342599	63.950071831871	0.001
14	343014	64.000071831871	0.002
14	343031	64.050071831871	0.001
14	343419	64.100071831871	0.002
14	343438	64.150071831871	0.001
14	343833	64.200071831871	0.002
14	343852	64.250071831871	0.001
14	344293	64.300071831871	0.002
14	344310	64.350071831871	0.001
14	344720	64.400071831871	0.002
14	344739	64.450071831871	0.001
14	345134	64.500071831871	0.002
14	345153	64.550071831871	0.001
14	345594	64.600071831871	0.002
14	345608	64.650071831871	0.001
14	345873	64.700071831871	0.002
14	345887	64.750071831871	0.001
14	346142	64.800071831871	0.002
14	346156	64.850071831871	0.001
14	346411	64.900071831871	0.002
14	346425	64.950071831871	0.001
14	346690	65.000071831871	0.002
14	346704	65.050071831871	0.001
14	346959	65.100071831871	0.002
14	346973	65.150071831871	0.001
14	347228	65.200071831871	0.002
14	347242	65.250071831871	0.001
14	347507	65.300071831871	0.002
14	347521	65.350071831871	0.001
14	347776	65.400071831871	0.002
14	347790	65.450071831871	0.001
14	348045	65.500071831871	0.002
14	348059	65.550071831871	0.001
14	348314	65.600071831871	0.002
14	348328	65.650071831871	0.001
14	348576	65.700071831871	0.002
14	348590	65.750071831871	0.001
14	348855	65.800071831871	0.002
14	348869	65.850071831871	0.001
14	349134	65.900071831871	0.002
14	349148	65.950071831871	0.001
14	349403	66.000071831871	0.002
14	349417	66.050071831871	0.001
14	349672	66.100071831871	0.002
14	349686	66.150071831871	0.001
14	349951	66.200071831871	0.002
14	349965	66.250071831871	0.001
14	350213	66.300071831871	0.002
14	350227	66.350071831871	0.001
14	350482	66.400071831871	0.002
14	350496	66.450071831871	0.001
14	350751	66.500071831871	0.002
14	350765	66.550071831871	0.001
14	351020	66.600071831871	0.002
14	351034	66.650071831871	0.001
14	351289	66.700071831871	0.002
14	351303	66.750071831871	0.001
14	351558	66.800071831871	0.002
14	351572	66.850071831871	0.001
14	351827	66.900071831871	0.002
14	351841	66.950071831871	0.001
14	352096	67.000071831871	0.002
14	352110	67.050071831871	0.001
14	352365	67.100071831871	0.002
14	352379	67.150071831871	0.001
14	352634	67.200071831871	0.002
14	352648	67.250071831871	0.001
14	352903	67.300071831871	0.002
14	352917	67.350071831871	0.001
14	353172	67.400071831871	0.002
14	353186	67.450071831871	0.001
14	353451	67.500071831871	0.002
14	353465	67.550071831871	0.001
14	353730	67.600071831871	0.002
14	353744	67.650071831871	0.001
14	353999	67.700071831871	0.002
14	354010	67.750071831871	0.001
14	354153	67.800071831871	0.002
14	354162	67.850071831871	0.001
14	354307	67.900071831871	0.002
14	354316	67.950071831871	0.001
14	354440	68.000071831871	0.002
14	354451	68.050071831871	0.001
14	354594	68.100071831871	0.002
14	354603	68.150071831871	0.001
14	354741	68.200071831871	0.002
14	354750	68.250071831871	0.001
14	354874	68.300071831871	0.002
14	354885	68.350071831871	0.001
14	355028	68.400071831871	0.002
14	355037	68.450071831871	0.001
14	355182	68.500071831871	0.002
14	355191	68.550071831871	0.001
14	355315	68.600071831871	0.002
14	355326	68.650071831871	0.001
14	355462	68.700071831871	0.002
14	355471	68.750071831871	0.001
14	355616	68.800071831871	0.002
14	355625	68.850071831871	0.001
14	355749	68.900071831871	0.002
14	355760	68.950071831871	0.001
14	355903	69.000071831871	0.002
14	355912	69.050071831871	0.001
14	356057	69.100071831871	0.002
14	356066	69.150071831871	0.001
14	356190	69.200071831871	0.002
14	356201	69.250071831871	0.001
14	356337	69.300071831871	0.002
14	356346	69.350071831871	0.001
14	356484	69.400071831871	0.002
14	356493	69.450071831871	0.001
14	356617	69.500071831871	0.002
14	356628	69.550071831871	0.001
14	356771	69.600071831871	0.002
14	356780	69.650071831871	0.001
14	356925	69.700071831871	0.002
14	356934	69.750071831871	0.001
14	357058	69.800071831871	0.002
14	357069	69.850071831871	0.001
14	357212	69.900071831871	0.002
14	357221	69.950071831871	0.001
14	357366	70.000071831871	0.002
14	357375	70.050071831871	0.001
14	357499	70.100071831871	0.002
14	357510	70.150071831871	0.001
14	357646	70.200071831871	0.002
14	357655	70.250071831871	0.001
14	357800	70.300071831871	0.002
14	357809	70.350071831871	0.001
14	357933	70.400071831871	0.002
14	357944	70.450071831871	0.001
14	358080	70.500071831871	0.002
14	358089	70.550071831871	0.001
14	358234	70.600071831871	0.002
14	358238	70.650071831871	0.001
14	358284	70.700071831871	0.002
14	358290	70.750071831871	0.001
14	358334	70.800071831871	0.002
14	358340	70.850071831871	0.001
14	358399	70.900071831871	0.002
14	358403	70.950071831871	0.001
14	358449	71.000071831871	0.002
14	358455	71.050071831871	0.001
14	358499	71.100071831871	0.002
14	358505	71.150071831871	0.001
14	358564	71.200071831871	0.002
14	358568	71.250071831871	0.001
14	358614	71.300071831871	0.002
14	358620	71.350071831871	0.001
14	358664	71.400071831871	0.002
14	358670	71.450071831871	0.001
14	358729	71.500071831871	0.002
14	358733	71.550071831871	0.001
14	358779	71.600071831871	0.002
14	358785	71.650071831871	0.001
14	358829	71.700071831871	0.002
14	358835	71.750071831871	0.001
14	358894	71.800071831871	0.002
14	358898	71.850071831871	0.001
14	358944	71.900071831871	0.002
14	358950	71.950071831871	0.001
14	358994	72.000071831871	0.002
14	359000	72.050071831871	0.001
14	359059	72.100071831871	0.002
14	359063	72.150071831871	0.001
14	359109	72.200071831871	0.002
14	359115	72.250071831871	0.001
14	359159	72.300071831871	0.002
14	359165	72.350071831871	0.001
14	359224	72.400071831871	0.002
14	359228	72.450071831871	0.001
14	359274	72.500071831871	0.002
14	359280	72.550071831871	0.001
14	359324	72.600071831871	0.002
14	359330	72.650071831871	0.001
14	359389	72.700071831871	0.002
14	359393	72.750071831871	0.001
14	359439	72.800071831871	0.002
14	359445	72.850071831871	0.001
14	359489	72.900071831871	0.002
14	359495	72.950071831871	0.001
14	359554	73.000071831871	0.002
14	359558	73.050071831871	0.001
14	359604	73.100071831871	0.002
14	359610	73.150071831871	0.001
14	359654	73.200071831871	0.002
14	359660	73.250071831871	0.001
14	359719	73.300071831871	0.002
14	359723	73.350071831871	0.001
14	359769	73.400071831871	0.002
14	359775	73.450071831871	0.001
14	359819	73.500071831871	0.002
14	359825	73.550071831871	0.001
14	359884	73.600071831871	0.002
14	359888	73.650071831871	0.001
14	359933	73.700071831871	0.002
14	359934	73.750071831871	0.001
14	359935	73.800071831871	0.002
14	359936	73.850071831871	0.001
14	359937	73.900071831871	0.002
14	359938	73.950071831871	0.001
14	359939	74.000071831871	0.002
14	359940	74.050071831871	0.001
14	359941	74.100071831871	0.002
14	359942	74.150071831871	0.001
14	359943	74.200071831871	0.002
14	359944	74.250071831871	0.001
14	359945	74.300071831871	0.002
14	359946	74.350071831871	0.001
14	359947	74.400071831871	0.002
14	359948	74.450071831871	0.001
14	359949	74.500071831871	0.002
14	359950	74.550071831871	0.001
14	359951	74.600071831871	0.002
14	359952	74.650071831871	0.001
14	359953	74.700071831871	0.002
14	359954	74.750071831871	0.001
14	359955	74.800071831871	0.002
14	359956	74.850071831871	0.001
14	359957	74.900071831871	0.002
14	359958	74.950071831871	0.001
14	359959	75.000071831871	0.002
14	359960	75.050071831871	0.001
14	359961	75.100071831871	0.002
14	359962	75.150071831871	0.001
14	359963	75.200071831871	0.002
14	359964	75.250071831871	0.001
14	359965	75.300071831871	0.002
14	359966	75.350071831871	0.001
14	359967	75.400071831871	0.002
14	359968	75.450071831871	0.001
14	359969	75.500071831871	0.002
14	359970	75.550071831871	0.001
14	359971	75.600071831871	0.002
14	359972	75.650071831871	0.001
14	359973	75.700071831871	0.002
14	359974	75.750071831871	0.001
14	359975	75.800071831871	0.002
14	359976	75.850071831871	0.001
14	359977	75.900071831871	0.002
14	359978	75.950071831871	0.001
