version 2
run VoIP-20ms_200B-4-20160923-14:09:12-14587
attr configname VoIP-20ms_200B
attr datetime 20160923-14:09:12
attr experiment VoIP-20ms_200B
attr inifile omnetpp.ini
attr iterationvars ""
attr iterationvars2 $repetition=4
attr measurement ""
attr network SymScenerio
attr processid 14587
attr repetition 4
attr replication #4
attr resultdir results
attr runnumber 4
attr seedset 4
param **.coreDebug false
param **.debug false
param *.**.nic.mac1609_4.bitrate 18Mbps
param *.**.nic.mac1609_4.txPower 20mW
param *.**.nic.mac1609_4.useServiceChannel true
param *.**.nic.phy80211p.analogueModels "xmldoc(\"config.xml\")"
param *.**.nic.phy80211p.decider "xmldoc(\"config.xml\")"
param *.**.nic.phy80211p.sensitivity -89dBm
param *.**.nic.phy80211p.thermalNoise -110dBm
param *.**.nic.phy80211p.usePropagationDelay true
param *.**.nic.phy80211p.useThermalNoise true
param *.annotations.draw false
param *.connectionManager.alpha 2.0
param *.connectionManager.carrierFrequency "5.890e9 Hz"
param *.connectionManager.pMax 20mW
param *.connectionManager.sat -89dBm
param *.connectionManager.sendDirect true
param *.manager.autoShutdown true
param *.manager.host "\"localhost\""
param *.manager.launchConfig "xmldoc(\"map.launchd.xml\")"
param *.manager.margin 25
param *.manager.moduleDisplayString "\"\""
param *.manager.moduleName "\"node\""
param *.manager.moduleType "\"symulacja.veins.nodes.Car\""
param *.manager.port 9999
param *.manager.updateInterval 0.1s
param *.node[*].appl.beaconInterval 1s
param *.node[*].appl.beaconPriority 3
param *.node[*].appl.dataOnSch false
param *.node[*].appl.dataPriority 2
param *.node[*].appl.debug false
param *.node[*].appl.maxOffset 0.005s
param *.node[*].appl.sendBeacons false
param *.node[*].appl.sendData true
param *.node[*].appl.sendVoIP true
param *.node[*].appl.voipInterval 0.020s
param *.node[*].appl.voipLengthBits 1600bit
param *.node[*].appl.voipOnSch true
param *.node[*].appl.voipPriority 3
param *.node[*].applType "\"Sym11p\""
param *.node[*].veinsmobility.x 0
param *.node[*].veinsmobility.y 0
param *.node[*].veinsmobility.z 1.895
param *.node[*].veinsmobilityType "\"symulacja.veins.modules.mobility.traci.TraCIMobility\""
param *.playgroundSizeX 9000m
param *.playgroundSizeY 9000m
param *.playgroundSizeZ 50m
param *.rsu[*].appl.beaconInterval 1s
param *.rsu[*].appl.beaconPriority 3
param *.rsu[*].appl.dataOnSch false
param *.rsu[*].appl.dataPriority 2
param *.rsu[*].appl.debug false
param *.rsu[*].appl.headerLength "256 bit"
param *.rsu[*].appl.maxOffset 0.005s
param *.rsu[*].appl.sendBeacons false
param *.rsu[*].appl.sendData false
param *.rsu[*].appl.sendVoIP false
param *.rsu[*].applType "\"SymRSU11p\""
param *.rsu[0].mobility.x 2160
param *.rsu[0].mobility.y 3100
param *.rsu[0].mobility.z 3
param *.world.use2D false
param *.world.useTorus false

vector 14  SymScenerio.rsu[0].nic.mac1609_4  "Interwały kanałów"  ETV
vector 23  SymScenerio.node[0].veinsmobility  posx  ETV
vector 24  SymScenerio.node[0].veinsmobility  posy  ETV
vector 22  SymScenerio.node[0].nic.mac1609_4  "Interwały kanałów"  ETV
vector 25  SymScenerio.node[0].veinsmobility  speed  ETV
vector 26  SymScenerio.node[0].veinsmobility  acceleration  ETV
vector 27  SymScenerio.node[0].veinsmobility  co2emission  ETV
vector 15  SymScenerio.node[0].appl  "TX Packets"  ETV
vector 16  SymScenerio.node[0].appl  "TX Total"  ETV
vector 17  SymScenerio.node[0].appl  Pakietyzacja  ETV
vector 5  SymScenerio.rsu[0].appl  nodeALL:vector  ETV
attr source  nodeALL
attr title  "Opoznienia ALL, vector"
vector 9  SymScenerio.rsu[0].appl  "RX Packet"  ETV
vector 0  SymScenerio.rsu[0].appl  node0:vector  ETV
attr source  node0
attr title  "Opoznienia node0, vector"
vector 36  SymScenerio.node[1].veinsmobility  posx  ETV
vector 37  SymScenerio.node[1].veinsmobility  posy  ETV
vector 35  SymScenerio.node[1].nic.mac1609_4  "Interwały kanałów"  ETV
vector 38  SymScenerio.node[1].veinsmobility  speed  ETV
vector 39  SymScenerio.node[1].veinsmobility  acceleration  ETV
vector 40  SymScenerio.node[1].veinsmobility  co2emission  ETV
vector 28  SymScenerio.node[1].appl  "TX Packets"  ETV
vector 29  SymScenerio.node[1].appl  "TX Total"  ETV
vector 30  SymScenerio.node[1].appl  Pakietyzacja  ETV
vector 1  SymScenerio.rsu[0].appl  node1:vector  ETV
attr source  node1
attr title  "Opoznienia node1, vector"
vector 49  SymScenerio.node[2].veinsmobility  posx  ETV
vector 50  SymScenerio.node[2].veinsmobility  posy  ETV
vector 48  SymScenerio.node[2].nic.mac1609_4  "Interwały kanałów"  ETV
vector 51  SymScenerio.node[2].veinsmobility  speed  ETV
vector 52  SymScenerio.node[2].veinsmobility  acceleration  ETV
vector 53  SymScenerio.node[2].veinsmobility  co2emission  ETV
vector 41  SymScenerio.node[2].appl  "TX Packets"  ETV
vector 42  SymScenerio.node[2].appl  "TX Total"  ETV
vector 43  SymScenerio.node[2].appl  Pakietyzacja  ETV
vector 2  SymScenerio.rsu[0].appl  node2:vector  ETV
attr source  node2
attr title  "Opoznienia node2, vector"
vector 62  SymScenerio.node[3].veinsmobility  posx  ETV
vector 63  SymScenerio.node[3].veinsmobility  posy  ETV
vector 61  SymScenerio.node[3].nic.mac1609_4  "Interwały kanałów"  ETV
vector 64  SymScenerio.node[3].veinsmobility  speed  ETV
vector 65  SymScenerio.node[3].veinsmobility  acceleration  ETV
vector 66  SymScenerio.node[3].veinsmobility  co2emission  ETV
vector 54  SymScenerio.node[3].appl  "TX Packets"  ETV
vector 55  SymScenerio.node[3].appl  "TX Total"  ETV
vector 56  SymScenerio.node[3].appl  Pakietyzacja  ETV
vector 3  SymScenerio.rsu[0].appl  node3:vector  ETV
attr source  node3
attr title  "Opoznienia node3, vector"
vector 75  SymScenerio.node[4].veinsmobility  posx  ETV
vector 76  SymScenerio.node[4].veinsmobility  posy  ETV
vector 74  SymScenerio.node[4].nic.mac1609_4  "Interwały kanałów"  ETV
vector 77  SymScenerio.node[4].veinsmobility  speed  ETV
vector 78  SymScenerio.node[4].veinsmobility  acceleration  ETV
vector 79  SymScenerio.node[4].veinsmobility  co2emission  ETV
vector 67  SymScenerio.node[4].appl  "TX Packets"  ETV
vector 68  SymScenerio.node[4].appl  "TX Total"  ETV
vector 69  SymScenerio.node[4].appl  Pakietyzacja  ETV
vector 4  SymScenerio.rsu[0].appl  node4:vector  ETV
attr source  node4
attr title  "Opoznienia node4, vector"
17	37	0.768864412168	1.002
17	52	0.788864412168	1.002
17	70	0.808864412168	1.002
17	72	0.828864412168	1.002
17	74	0.848864412168	1.002
17	117	0.868864412168	1.002
17	132	0.888864412168	1.002
17	150	0.908864412168	1.002
17	152	0.928864412168	1.002
17	154	0.948864412168	1.002
17	197	0.968864412168	1.002
17	212	0.988864412168	1.002
17	230	1.008864412168	1.002
17	232	1.028864412168	1.002
17	234	1.048864412168	1.002
17	277	1.068864412168	1.002
17	292	1.088864412168	1.002
17	310	1.108864412168	1.002
17	312	1.128864412168	1.002
17	314	1.148864412168	1.002
17	357	1.168864412168	1.002
17	372	1.188864412168	1.002
17	390	1.208864412168	1.002
17	392	1.228864412168	1.002
17	394	1.248864412168	1.002
17	437	1.268864412168	1.002
17	452	1.288864412168	1.002
17	470	1.308864412168	1.002
17	472	1.328864412168	1.002
17	474	1.348864412168	1.002
17	517	1.368864412168	1.002
17	532	1.388864412168	1.002
17	550	1.408864412168	1.002
17	552	1.428864412168	1.002
17	554	1.448864412168	1.002
17	597	1.468864412168	1.002
17	612	1.488864412168	1.002
17	630	1.508864412168	1.002
17	632	1.528864412168	1.002
17	634	1.548864412168	1.002
17	677	1.568864412168	1.002
17	692	1.588864412168	1.002
17	710	1.608864412168	1.002
17	712	1.628864412168	1.002
17	714	1.648864412168	1.002
17	757	1.668864412168	1.002
17	772	1.688864412168	1.002
17	790	1.708864412168	1.002
17	792	1.728864412168	1.002
17	794	1.748864412168	1.002
17	837	1.768864412168	1.002
17	852	1.788864412168	1.002
17	870	1.808864412168	1.002
17	872	1.828864412168	1.002
17	874	1.848864412168	1.002
17	917	1.868864412168	1.002
17	932	1.888864412168	1.002
17	950	1.908864412168	1.002
17	952	1.928864412168	1.002
17	954	1.948864412168	1.002
17	997	1.968864412168	1.002
17	1012	1.988864412168	1.002
17	1030	2.008864412168	1.002
17	1032	2.028864412168	1.002
17	1034	2.048864412168	1.002
17	1077	2.068864412168	1.002
17	1092	2.088864412168	1.002
17	1110	2.108864412168	1.002
17	1112	2.128864412168	1.002
17	1114	2.148864412168	1.002
17	1157	2.168864412168	1.002
17	1172	2.188864412168	1.002
17	1190	2.208864412168	1.002
17	1192	2.228864412168	1.002
17	1194	2.248864412168	1.002
17	1237	2.268864412168	1.002
17	1252	2.288864412168	1.002
17	1270	2.308864412168	1.002
17	1272	2.328864412168	1.002
17	1274	2.348864412168	1.002
17	1317	2.368864412168	1.002
17	1332	2.388864412168	1.002
17	1350	2.408864412168	1.002
17	1352	2.428864412168	1.002
17	1354	2.448864412168	1.002
17	1397	2.468864412168	1.002
17	1412	2.488864412168	1.002
17	1430	2.508864412168	1.002
17	1432	2.528864412168	1.002
17	1434	2.548864412168	1.002
17	1477	2.568864412168	1.002
17	1492	2.588864412168	1.002
17	1510	2.608864412168	1.002
17	1512	2.628864412168	1.002
17	1514	2.648864412168	1.002
17	1557	2.668864412168	1.002
17	1572	2.688864412168	1.002
17	1590	2.708864412168	1.002
17	1592	2.728864412168	1.002
17	1594	2.748864412168	1.002
17	1637	2.768864412168	1.002
17	1652	2.788864412168	1.002
17	1670	2.808864412168	1.002
17	1672	2.828864412168	1.002
17	1674	2.848864412168	1.002
17	1717	2.868864412168	1.002
17	1732	2.888864412168	1.002
17	1750	2.908864412168	1.002
17	1752	2.928864412168	1.002
17	1754	2.948864412168	1.002
17	1797	2.968864412168	1.002
17	1812	2.988864412168	1.002
17	1830	3.008864412168	1.002
17	1832	3.028864412168	1.002
17	1834	3.048864412168	1.002
17	1877	3.068864412168	1.002
17	1892	3.088864412168	1.002
17	1910	3.108864412168	1.002
17	1912	3.128864412168	1.002
17	1914	3.148864412168	1.002
17	1976	3.168864412168	1.002
17	1997	3.188864412168	1.002
17	2022	3.208864412168	1.002
17	2024	3.228864412168	1.002
17	2026	3.248864412168	1.002
17	2088	3.268864412168	1.002
17	2109	3.288864412168	1.002
17	2134	3.308864412168	1.002
17	2136	3.328864412168	1.002
17	2138	3.348864412168	1.002
17	2200	3.368864412168	1.002
17	2221	3.388864412168	1.002
17	2246	3.408864412168	1.002
17	2248	3.428864412168	1.002
17	2250	3.448864412168	1.002
17	2312	3.468864412168	1.002
17	2333	3.488864412168	1.002
17	2358	3.508864412168	1.002
17	2360	3.528864412168	1.002
17	2362	3.548864412168	1.002
17	2424	3.568864412168	1.002
17	2445	3.588864412168	1.002
17	2470	3.608864412168	1.002
17	2472	3.628864412168	1.002
17	2474	3.648864412168	1.002
17	2536	3.668864412168	1.002
17	2557	3.688864412168	1.002
17	2582	3.708864412168	1.002
17	2584	3.728864412168	1.002
17	2586	3.748864412168	1.002
17	2648	3.768864412168	1.002
17	2669	3.788864412168	1.002
17	2694	3.808864412168	1.002
17	2696	3.828864412168	1.002
17	2700	3.848864412168	1.002
17	2802	3.868864412168	1.002
17	2844	3.888864412168	1.002
17	2871	3.908864412168	1.002
17	2875	3.928864412168	1.002
17	2879	3.948864412168	1.002
17	3019	3.968864412168	1.002
17	3061	3.988864412168	1.002
17	3088	4.008864412168	1.002
17	3092	4.028864412168	1.002
17	3096	4.048864412168	1.002
17	3236	4.068864412168	1.002
17	3278	4.088864412168	1.002
17	3305	4.108864412168	1.002
17	3309	4.128864412168	1.002
17	3313	4.148864412168	1.002
17	3453	4.168864412168	1.002
17	3495	4.188864412168	1.002
17	3522	4.208864412168	1.002
17	3526	4.228864412168	1.002
17	3530	4.248864412168	1.002
17	3663	4.268864412168	1.002
17	3705	4.288864412168	1.002
17	3732	4.308864412168	1.002
17	3736	4.328864412168	1.002
17	3740	4.348864412168	1.002
17	3880	4.368864412168	1.002
17	3922	4.388864412168	1.002
17	3949	4.408864412168	1.002
17	3953	4.428864412168	1.002
17	3957	4.448864412168	1.002
17	4090	4.468864412168	1.002
17	4132	4.488864412168	1.002
17	4159	4.508864412168	1.002
17	4163	4.528864412168	1.002
17	4167	4.548864412168	1.002
17	4300	4.568864412168	1.002
17	4342	4.588864412168	1.002
17	4369	4.608864412168	1.002
17	4373	4.628864412168	1.002
17	4377	4.648864412168	1.002
17	4510	4.668864412168	1.002
17	4552	4.688864412168	1.002
17	4579	4.708864412168	1.002
17	4583	4.728864412168	1.002
17	4587	4.748864412168	1.002
17	4727	4.768864412168	1.002
17	4769	4.788864412168	1.002
17	4796	4.808864412168	1.002
17	4800	4.828864412168	1.002
17	4804	4.848864412168	1.002
17	4944	4.868864412168	1.002
17	4986	4.888864412168	1.002
17	5013	4.908864412168	1.002
17	5017	4.928864412168	1.002
17	5021	4.948864412168	1.002
17	5161	4.968864412168	1.002
17	5203	4.988864412168	1.002
17	5230	5.008864412168	1.002
17	5234	5.028864412168	1.002
17	5238	5.048864412168	1.002
17	5371	5.068864412168	1.002
17	5413	5.088864412168	1.002
17	5440	5.108864412168	1.002
17	5444	5.128864412168	1.002
17	5448	5.148864412168	1.002
17	5588	5.168864412168	1.002
17	5630	5.188864412168	1.002
17	5657	5.208864412168	1.002
17	5661	5.228864412168	1.002
17	5665	5.248864412168	1.002
17	5805	5.268864412168	1.002
17	5847	5.288864412168	1.002
17	5874	5.308864412168	1.002
17	5878	5.328864412168	1.002
17	5882	5.348864412168	1.002
17	6015	5.368864412168	1.002
17	6057	5.388864412168	1.002
17	6084	5.408864412168	1.002
17	6088	5.428864412168	1.002
17	6092	5.448864412168	1.002
17	6232	5.468864412168	1.002
17	6274	5.488864412168	1.002
17	6301	5.508864412168	1.002
17	6305	5.528864412168	1.002
17	6309	5.548864412168	1.002
17	6449	5.568864412168	1.002
17	6491	5.588864412168	1.002
17	6518	5.608864412168	1.002
17	6522	5.628864412168	1.002
17	6526	5.648864412168	1.002
17	6666	5.668864412168	1.002
17	6708	5.688864412168	1.002
17	6735	5.708864412168	1.002
17	6739	5.728864412168	1.002
17	6743	5.748864412168	1.002
17	6883	5.768864412168	1.002
17	6925	5.788864412168	1.002
17	6952	5.808864412168	1.002
17	6956	5.828864412168	1.002
17	6960	5.848864412168	1.002
17	7093	5.868864412168	1.002
17	7135	5.888864412168	1.002
17	7162	5.908864412168	1.002
17	7166	5.928864412168	1.002
17	7170	5.948864412168	1.002
17	7310	5.968864412168	1.002
17	7352	5.988864412168	1.002
17	7379	6.008864412168	1.002
17	7383	6.028864412168	1.002
17	7387	6.048864412168	1.002
17	7520	6.068864412168	1.002
17	7562	6.088864412168	1.002
17	7589	6.108864412168	1.002
17	7593	6.128864412168	1.002
17	7597	6.148864412168	1.002
17	7780	6.168864412168	1.002
17	7834	6.188864412168	1.002
17	7868	6.208864412168	1.002
17	7872	6.228864412168	1.002
17	7876	6.248864412168	1.002
17	8059	6.268864412168	1.002
17	8113	6.288864412168	1.002
17	8147	6.308864412168	1.002
17	8151	6.328864412168	1.002
17	8155	6.348864412168	1.002
17	8338	6.368864412168	1.002
17	8392	6.388864412168	1.002
17	8426	6.408864412168	1.002
17	8430	6.428864412168	1.002
17	8434	6.448864412168	1.002
17	8607	6.468864412168	1.002
17	8661	6.488864412168	1.002
17	8695	6.508864412168	1.002
17	8699	6.528864412168	1.002
17	8703	6.548864412168	1.002
17	8913	6.568864412168	1.002
17	8994	6.588864412168	1.002
17	9030	6.608864412168	1.002
17	9036	6.628864412168	1.002
17	9042	6.648864412168	1.002
17	9327	6.668864412168	1.002
17	9408	6.688864412168	1.002
17	9444	6.708864412168	1.002
17	9450	6.728864412168	1.002
17	9456	6.748864412168	1.002
17	9721	6.768864412168	1.002
17	9802	6.788864412168	1.002
17	9838	6.808864412168	1.002
17	9844	6.828864412168	1.002
17	9850	6.848864412168	1.002
17	10115	6.868864412168	1.002
17	10196	6.888864412168	1.002
17	10232	6.908864412168	1.002
17	10238	6.928864412168	1.002
17	10244	6.948864412168	1.002
17	10509	6.968864412168	1.002
17	10590	6.988864412168	1.002
17	10626	7.008864412168	1.002
17	10632	7.028864412168	1.002
17	10638	7.048864412168	1.002
17	10903	7.068864412168	1.002
17	10984	7.088864412168	1.002
17	11020	7.108864412168	1.002
17	11026	7.128864412168	1.002
17	11032	7.148864412168	1.002
17	11317	7.168864412168	1.002
17	11398	7.188864412168	1.002
17	11434	7.208864412168	1.002
17	11440	7.228864412168	1.002
17	11446	7.248864412168	1.002
17	11711	7.268864412168	1.002
17	11792	7.288864412168	1.002
17	11828	7.308864412168	1.002
17	11834	7.328864412168	1.002
17	11840	7.348864412168	1.002
17	12125	7.368864412168	1.002
17	12206	7.388864412168	1.002
17	12242	7.408864412168	1.002
17	12248	7.428864412168	1.002
17	12254	7.448864412168	1.002
17	12529	7.468864412168	1.002
17	12610	7.488864412168	1.002
17	12646	7.508864412168	1.002
17	12652	7.528864412168	1.002
17	12658	7.548864412168	1.002
17	12923	7.568864412168	1.002
17	13004	7.588864412168	1.002
17	13040	7.608864412168	1.002
17	13046	7.628864412168	1.002
17	13052	7.648864412168	1.002
17	13327	7.668864412168	1.002
17	13408	7.688864412168	1.002
17	13444	7.708864412168	1.002
17	13450	7.728864412168	1.002
17	13456	7.748864412168	1.002
17	13741	7.768864412168	1.002
17	13822	7.788864412168	1.002
17	13858	7.808864412168	1.002
17	13864	7.828864412168	1.002
17	13870	7.848864412168	1.002
17	14125	7.868864412168	1.002
17	14206	7.888864412168	1.002
17	14242	7.908864412168	1.002
17	14248	7.928864412168	1.002
17	14254	7.948864412168	1.002
17	14519	7.968864412168	1.002
17	14600	7.988864412168	1.002
17	14636	8.008864412168	1.002
17	14642	8.028864412168	1.002
17	14648	8.048864412168	1.002
17	14923	8.068864412168	1.002
17	15004	8.088864412168	1.002
17	15040	8.108864412168	1.002
17	15046	8.128864412168	1.002
17	15052	8.148864412168	1.002
17	15310	8.168864412168	1.002
17	15391	8.188864412168	1.002
17	15427	8.208864412168	1.002
17	15433	8.228864412168	1.002
17	15439	8.248864412168	1.002
17	15704	8.268864412168	1.002
17	15785	8.288864412168	1.002
17	15821	8.308864412168	1.002
17	15827	8.328864412168	1.002
17	15833	8.348864412168	1.002
17	16091	8.368864412168	1.002
17	16172	8.388864412168	1.002
17	16208	8.408864412168	1.002
17	16214	8.428864412168	1.002
17	16220	8.448864412168	1.002
17	16495	8.468864412168	1.002
17	16576	8.488864412168	1.002
17	16612	8.508864412168	1.002
17	16618	8.528864412168	1.002
17	16624	8.548864412168	1.002
17	16889	8.568864412168	1.002
17	16970	8.588864412168	1.002
17	17006	8.608864412168	1.002
17	17012	8.628864412168	1.002
17	17018	8.648864412168	1.002
17	17283	8.668864412168	1.002
17	17364	8.688864412168	1.002
17	17400	8.708864412168	1.002
17	17406	8.728864412168	1.002
17	17412	8.748864412168	1.002
17	17677	8.768864412168	1.002
17	17758	8.788864412168	1.002
17	17794	8.808864412168	1.002
17	17800	8.828864412168	1.002
17	17806	8.848864412168	1.002
17	18071	8.868864412168	1.002
17	18152	8.888864412168	1.002
17	18188	8.908864412168	1.002
17	18194	8.928864412168	1.002
17	18200	8.948864412168	1.002
17	18485	8.968864412168	1.002
17	18566	8.988864412168	1.002
17	18602	9.008864412168	1.002
17	18608	9.028864412168	1.002
17	18614	9.048864412168	1.002
17	18882	9.068864412168	1.002
17	18963	9.088864412168	1.002
17	18999	9.108864412168	1.002
17	19005	9.128864412168	1.002
17	19011	9.148864412168	1.002
17	19341	9.168864412168	1.002
17	19440	9.188864412168	1.002
17	19483	9.208864412168	1.002
17	19489	9.228864412168	1.002
17	19495	9.248864412168	1.002
17	19821	9.268864412168	1.002
17	19920	9.288864412168	1.002
17	19963	9.308864412168	1.002
17	19969	9.328864412168	1.002
17	19975	9.348864412168	1.002
17	20292	9.368864412168	1.002
17	20391	9.388864412168	1.002
17	20434	9.408864412168	1.002
17	20440	9.428864412168	1.002
17	20446	9.448864412168	1.002
17	20759	9.468864412168	1.002
17	20858	9.488864412168	1.002
17	20901	9.508864412168	1.002
17	20907	9.528864412168	1.002
17	20914	9.548864412168	1.002
17	21286	9.568864412168	1.002
17	21418	9.588864412168	1.002
17	21494	9.608864412168	1.002
17	21502	9.628864412168	1.002
17	21510	9.648864412168	1.002
17	21910	9.668864412168	1.002
17	22042	9.688864412168	1.002
17	22118	9.708864412168	1.002
17	22126	9.728864412168	1.002
17	22134	9.748864412168	1.002
17	22533	9.768864412168	1.002
17	22665	9.788864412168	1.002
17	22741	9.808864412168	1.002
17	22749	9.828864412168	1.002
17	22757	9.848864412168	1.002
17	23165	9.868864412168	1.002
17	23297	9.888864412168	1.002
17	23373	9.908864412168	1.002
17	23381	9.928864412168	1.002
17	23389	9.948864412168	1.002
17	23801	9.968864412168	1.002
17	23933	9.988864412168	1.002
17	24009	10.008864412168	1.002
17	24017	10.028864412168	1.002
17	24025	10.048864412168	1.002
17	24428	10.068864412168	1.002
17	24560	10.088864412168	1.002
17	24636	10.108864412168	1.002
17	24644	10.128864412168	1.002
17	24652	10.148864412168	1.002
17	25086	10.168864412168	1.002
17	25218	10.188864412168	1.002
17	25294	10.208864412168	1.002
17	25302	10.228864412168	1.002
17	25310	10.248864412168	1.002
17	25709	10.268864412168	1.002
17	25841	10.288864412168	1.002
17	25917	10.308864412168	1.002
17	25925	10.328864412168	1.002
17	25933	10.348864412168	1.002
17	26336	10.368864412168	1.002
17	26468	10.388864412168	1.002
17	26544	10.408864412168	1.002
17	26552	10.428864412168	1.002
17	26560	10.448864412168	1.002
17	26959	10.468864412168	1.002
17	27091	10.488864412168	1.002
17	27167	10.508864412168	1.002
17	27175	10.528864412168	1.002
17	27183	10.548864412168	1.002
17	27582	10.568864412168	1.002
17	27714	10.588864412168	1.002
17	27790	10.608864412168	1.002
17	27798	10.628864412168	1.002
17	27806	10.648864412168	1.002
17	28205	10.668864412168	1.002
17	28337	10.688864412168	1.002
17	28413	10.708864412168	1.002
17	28421	10.728864412168	1.002
17	28429	10.748864412168	1.002
17	28841	10.768864412168	1.002
17	28973	10.788864412168	1.002
17	29049	10.808864412168	1.002
17	29057	10.828864412168	1.002
17	29065	10.848864412168	1.002
17	29473	10.868864412168	1.002
17	29605	10.888864412168	1.002
17	29681	10.908864412168	1.002
17	29689	10.928864412168	1.002
17	29697	10.948864412168	1.002
17	30096	10.968864412168	1.002
17	30228	10.988864412168	1.002
17	30304	11.008864412168	1.002
17	30312	11.028864412168	1.002
17	30320	11.048864412168	1.002
17	30706	11.068864412168	1.002
17	30838	11.088864412168	1.002
17	30914	11.108864412168	1.002
17	30922	11.128864412168	1.002
17	30930	11.148864412168	1.002
17	31325	11.168864412168	1.002
17	31457	11.188864412168	1.002
17	31533	11.208864412168	1.002
17	31541	11.228864412168	1.002
17	31549	11.248864412168	1.002
17	31948	11.268864412168	1.002
17	32080	11.288864412168	1.002
17	32156	11.308864412168	1.002
17	32164	11.328864412168	1.002
17	32172	11.348864412168	1.002
17	32562	11.368864412168	1.002
17	32694	11.388864412168	1.002
17	32770	11.408864412168	1.002
17	32778	11.428864412168	1.002
17	32786	11.448864412168	1.002
17	33207	11.468864412168	1.002
17	33339	11.488864412168	1.002
17	33415	11.508864412168	1.002
17	33423	11.528864412168	1.002
17	33431	11.548864412168	1.002
17	33830	11.568864412168	1.002
17	33962	11.588864412168	1.002
17	34038	11.608864412168	1.002
17	34046	11.628864412168	1.002
17	34054	11.648864412168	1.002
17	34457	11.668864412168	1.002
17	34589	11.688864412168	1.002
17	34665	11.708864412168	1.002
17	34673	11.728864412168	1.002
17	34681	11.748864412168	1.002
17	35071	11.768864412168	1.002
17	35203	11.788864412168	1.002
17	35279	11.808864412168	1.002
17	35287	11.828864412168	1.002
17	35295	11.848864412168	1.002
17	35703	11.868864412168	1.002
17	35835	11.888864412168	1.002
17	35911	11.908864412168	1.002
17	35919	11.928864412168	1.002
17	35927	11.948864412168	1.002
17	36339	11.968864412168	1.002
17	36471	11.988864412168	1.002
17	36547	12.008864412168	1.002
17	36555	12.028864412168	1.002
17	36563	12.048864412168	1.002
17	36966	12.068864412168	1.002
17	37098	12.088864412168	1.002
17	37174	12.108864412168	1.002
17	37182	12.128864412168	1.002
17	37190	12.148864412168	1.002
17	37679	12.168864412168	1.002
17	37835	12.188864412168	1.002
17	37924	12.208864412168	1.002
17	37932	12.228864412168	1.002
17	37940	12.248864412168	1.002
17	38398	12.268864412168	1.002
17	38554	12.288864412168	1.002
17	38643	12.308864412168	1.002
17	38651	12.328864412168	1.002
17	38659	12.348864412168	1.002
17	39135	12.368864412168	1.002
17	39330	12.388864412168	1.002
17	39458	12.408864412168	1.002
17	39468	12.428864412168	1.002
17	39478	12.448864412168	1.002
17	40037	12.468864412168	1.002
17	40232	12.488864412168	1.002
17	40360	12.508864412168	1.002
17	40370	12.528864412168	1.002
17	40380	12.548864412168	1.002
17	40955	12.568864412168	1.002
17	41150	12.588864412168	1.002
17	41278	12.608864412168	1.002
17	41288	12.628864412168	1.002
17	41298	12.648864412168	1.002
17	41896	12.668864412168	1.002
17	42091	12.688864412168	1.002
17	42219	12.708864412168	1.002
17	42229	12.728864412168	1.002
17	42239	12.748864412168	1.002
17	42826	12.768864412168	1.002
17	43021	12.788864412168	1.002
17	43149	12.808864412168	1.002
17	43159	12.828864412168	1.002
17	43169	12.848864412168	1.002
17	43740	12.868864412168	1.002
17	43935	12.888864412168	1.002
17	44063	12.908864412168	1.002
17	44073	12.928864412168	1.002
17	44083	12.948864412168	1.002
17	44648	12.968864412168	1.002
17	44843	12.988864412168	1.002
17	44971	13.008864412168	1.002
17	44981	13.028864412168	1.002
17	44991	13.048864412168	1.002
17	45534	13.068864412168	1.002
17	45729	13.088864412168	1.002
17	45857	13.108864412168	1.002
17	45867	13.128864412168	1.002
17	45877	13.148864412168	1.002
17	46449	13.168864412168	1.002
17	46644	13.188864412168	1.002
17	46772	13.208864412168	1.002
17	46782	13.228864412168	1.002
17	46792	13.248864412168	1.002
17	47335	13.268864412168	1.002
17	47530	13.288864412168	1.002
17	47658	13.308864412168	1.002
17	47668	13.328864412168	1.002
17	47678	13.348864412168	1.002
17	48237	13.368864412168	1.002
17	48432	13.388864412168	1.002
17	48560	13.408864412168	1.002
17	48570	13.428864412168	1.002
17	48580	13.448864412168	1.002
17	49128	13.468864412168	1.002
17	49323	13.488864412168	1.002
17	49451	13.508864412168	1.002
17	49461	13.528864412168	1.002
17	49471	13.548864412168	1.002
17	50014	13.568864412168	1.002
17	50209	13.588864412168	1.002
17	50337	13.608864412168	1.002
17	50347	13.628864412168	1.002
17	50357	13.648864412168	1.002
17	50922	13.668864412168	1.002
17	51117	13.688864412168	1.002
17	51245	13.708864412168	1.002
17	51255	13.728864412168	1.002
17	51265	13.748864412168	1.002
17	51841	13.768864412168	1.002
17	52036	13.788864412168	1.002
17	52164	13.808864412168	1.002
17	52174	13.828864412168	1.002
17	52184	13.848864412168	1.002
17	52754	13.868864412168	1.002
17	52949	13.888864412168	1.002
17	53077	13.908864412168	1.002
17	53087	13.928864412168	1.002
17	53097	13.948864412168	1.002
17	53651	13.968864412168	1.002
17	53846	13.988864412168	1.002
17	53974	14.008864412168	1.002
17	53984	14.028864412168	1.002
17	53994	14.048864412168	1.002
17	54575	14.068864412168	1.002
17	54770	14.088864412168	1.002
17	54898	14.108864412168	1.002
17	54908	14.128864412168	1.002
17	54918	14.148864412168	1.002
17	55472	14.168864412168	1.002
17	55667	14.188864412168	1.002
17	55795	14.208864412168	1.002
17	55805	14.228864412168	1.002
17	55815	14.248864412168	1.002
17	56390	14.268864412168	1.002
17	56585	14.288864412168	1.002
17	56713	14.308864412168	1.002
17	56723	14.328864412168	1.002
17	56733	14.348864412168	1.002
17	57281	14.368864412168	1.002
17	57476	14.388864412168	1.002
17	57604	14.408864412168	1.002
17	57614	14.428864412168	1.002
17	57624	14.448864412168	1.002
17	58188	14.468864412168	1.002
17	58383	14.488864412168	1.002
17	58511	14.508864412168	1.002
17	58521	14.528864412168	1.002
17	58531	14.548864412168	1.002
17	59096	14.568864412168	1.002
17	59291	14.588864412168	1.002
17	59419	14.608864412168	1.002
17	59429	14.628864412168	1.002
17	59439	14.648864412168	1.002
17	60008	14.668864412168	1.002
17	60203	14.688864412168	1.002
17	60331	14.708864412168	1.002
17	60341	14.728864412168	1.002
17	60351	14.748864412168	1.002
17	60910	14.768864412168	1.002
17	61105	14.788864412168	1.002
17	61233	14.808864412168	1.002
17	61243	14.828864412168	1.002
17	61253	14.848864412168	1.002
17	61823	14.868864412168	1.002
17	62018	14.888864412168	1.002
17	62146	14.908864412168	1.002
17	62156	14.928864412168	1.002
17	62166	14.948864412168	1.002
17	62741	14.968864412168	1.002
17	62936	14.988864412168	1.002
17	63064	15.008864412168	1.002
17	63074	15.028864412168	1.002
17	63084	15.048864412168	1.002
17	63654	15.068864412168	1.002
17	63849	15.088864412168	1.002
17	63977	15.108864412168	1.002
17	63987	15.128864412168	1.002
17	63997	15.148864412168	1.002
17	64556	15.168864412168	1.002
17	64751	15.188864412168	1.002
17	64879	15.208864412168	1.002
17	64889	15.228864412168	1.002
17	64899	15.248864412168	1.002
17	65447	15.268864412168	1.002
17	65642	15.288864412168	1.002
17	65770	15.308864412168	1.002
17	65780	15.328864412168	1.002
17	65790	15.348864412168	1.002
17	66344	15.368864412168	1.002
17	66539	15.388864412168	1.002
17	66667	15.408864412168	1.002
17	66677	15.428864412168	1.002
17	66687	15.448864412168	1.002
17	67246	15.468864412168	1.002
17	67441	15.488864412168	1.002
17	67569	15.508864412168	1.002
17	67579	15.528864412168	1.002
17	67589	15.548864412168	1.002
17	68159	15.568864412168	1.002
17	68354	15.588864412168	1.002
17	68482	15.608864412168	1.002
17	68492	15.628864412168	1.002
17	68502	15.648864412168	1.002
17	69061	15.668864412168	1.002
17	69256	15.688864412168	1.002
17	69384	15.708864412168	1.002
17	69394	15.728864412168	1.002
17	69404	15.748864412168	1.002
17	69985	15.768864412168	1.002
17	70180	15.788864412168	1.002
17	70308	15.808864412168	1.002
17	70318	15.828864412168	1.002
17	70328	15.848864412168	1.002
17	70887	15.868864412168	1.002
17	71082	15.888864412168	1.002
17	71210	15.908864412168	1.002
17	71220	15.928864412168	1.002
17	71230	15.948864412168	1.002
17	71778	15.968864412168	1.002
17	71973	15.988864412168	1.002
17	72101	16.008864412168	1.002
17	72111	16.028864412168	1.002
17	72121	16.048864412168	1.002
17	72659	16.068864412168	1.002
17	72854	16.088864412168	1.002
17	72982	16.108864412168	1.002
17	72992	16.128864412168	1.002
17	73002	16.148864412168	1.002
17	73561	16.168864412168	1.002
17	73756	16.188864412168	1.002
17	73884	16.208864412168	1.002
17	73894	16.228864412168	1.002
17	73904	16.248864412168	1.002
17	74474	16.268864412168	1.002
17	74669	16.288864412168	1.002
17	74797	16.308864412168	1.002
17	74807	16.328864412168	1.002
17	74817	16.348864412168	1.002
17	75376	16.368864412168	1.002
17	75571	16.388864412168	1.002
17	75699	16.408864412168	1.002
17	75709	16.428864412168	1.002
17	75719	16.448864412168	1.002
17	76278	16.468864412168	1.002
17	76473	16.488864412168	1.002
17	76601	16.508864412168	1.002
17	76611	16.528864412168	1.002
17	76621	16.548864412168	1.002
17	77164	16.568864412168	1.002
17	77359	16.588864412168	1.002
17	77487	16.608864412168	1.002
17	77497	16.628864412168	1.002
17	77507	16.648864412168	1.002
17	78082	16.668864412168	1.002
17	78277	16.688864412168	1.002
17	78405	16.708864412168	1.002
17	78415	16.728864412168	1.002
17	78425	16.748864412168	1.002
17	78979	16.768864412168	1.002
17	79174	16.788864412168	1.002
17	79302	16.808864412168	1.002
17	79312	16.828864412168	1.002
17	79322	16.848864412168	1.002
17	79876	16.868864412168	1.002
17	80071	16.888864412168	1.002
17	80199	16.908864412168	1.002
17	80209	16.928864412168	1.002
17	80219	16.948864412168	1.002
17	80773	16.968864412168	1.002
17	80968	16.988864412168	1.002
17	81096	17.008864412168	1.002
17	81106	17.028864412168	1.002
17	81116	17.048864412168	1.002
17	81697	17.068864412168	1.002
17	81892	17.088864412168	1.002
17	82020	17.108864412168	1.002
17	82030	17.128864412168	1.002
17	82040	17.148864412168	1.002
17	82594	17.168864412168	1.002
17	82789	17.188864412168	1.002
17	82917	17.208864412168	1.002
17	82927	17.228864412168	1.002
17	82937	17.248864412168	1.002
17	83518	17.268864412168	1.002
17	83713	17.288864412168	1.002
17	83841	17.308864412168	1.002
17	83851	17.328864412168	1.002
17	83861	17.348864412168	1.002
17	84415	17.368864412168	1.002
17	84610	17.388864412168	1.002
17	84738	17.408864412168	1.002
17	84748	17.428864412168	1.002
17	84758	17.448864412168	1.002
17	85301	17.468864412168	1.002
17	85496	17.488864412168	1.002
17	85624	17.508864412168	1.002
17	85634	17.528864412168	1.002
17	85644	17.548864412168	1.002
17	86214	17.568864412168	1.002
17	86409	17.588864412168	1.002
17	86537	17.608864412168	1.002
17	86547	17.628864412168	1.002
17	86557	17.648864412168	1.002
17	87127	17.668864412168	1.002
17	87322	17.688864412168	1.002
17	87450	17.708864412168	1.002
17	87460	17.728864412168	1.002
17	87470	17.748864412168	1.002
17	88040	17.768864412168	1.002
17	88235	17.788864412168	1.002
17	88363	17.808864412168	1.002
17	88373	17.828864412168	1.002
17	88383	17.848864412168	1.002
17	88942	17.868864412168	1.002
17	89137	17.888864412168	1.002
17	89265	17.908864412168	1.002
17	89275	17.928864412168	1.002
17	89285	17.948864412168	1.002
17	89839	17.968864412168	1.002
17	90034	17.988864412168	1.002
17	90162	18.008864412168	1.002
17	90172	18.028864412168	1.002
17	90182	18.048864412168	1.002
17	90768	18.068864412168	1.002
17	90963	18.088864412168	1.002
17	91091	18.108864412168	1.002
17	91101	18.128864412168	1.002
17	91111	18.148864412168	1.002
17	91697	18.168864412168	1.002
17	91892	18.188864412168	1.002
17	92020	18.208864412168	1.002
17	92030	18.228864412168	1.002
17	92040	18.248864412168	1.002
17	92599	18.268864412168	1.002
17	92794	18.288864412168	1.002
17	92922	18.308864412168	1.002
17	92932	18.328864412168	1.002
17	92942	18.348864412168	1.002
17	93506	18.368864412168	1.002
17	93701	18.388864412168	1.002
17	93829	18.408864412168	1.002
17	93839	18.428864412168	1.002
17	93849	18.448864412168	1.002
17	94419	18.468864412168	1.002
17	94614	18.488864412168	1.002
17	94742	18.508864412168	1.002
17	94752	18.528864412168	1.002
17	94762	18.548864412168	1.002
17	95326	18.568864412168	1.002
17	95521	18.588864412168	1.002
17	95649	18.608864412168	1.002
17	95659	18.628864412168	1.002
17	95669	18.648864412168	1.002
17	96255	18.668864412168	1.002
17	96450	18.688864412168	1.002
17	96578	18.708864412168	1.002
17	96588	18.728864412168	1.002
17	96598	18.748864412168	1.002
17	97146	18.768864412168	1.002
17	97341	18.788864412168	1.002
17	97469	18.808864412168	1.002
17	97479	18.828864412168	1.002
17	97489	18.848864412168	1.002
17	98059	18.868864412168	1.002
17	98254	18.888864412168	1.002
17	98382	18.908864412168	1.002
17	98392	18.928864412168	1.002
17	98402	18.948864412168	1.002
17	98951	18.968864412168	1.002
17	99146	18.988864412168	1.002
17	99274	19.008864412168	1.002
17	99284	19.028864412168	1.002
17	99294	19.048864412168	1.002
17	99847	19.068864412168	1.002
17	100042	19.088864412168	1.002
17	100170	19.108864412168	1.002
17	100180	19.128864412168	1.002
17	100190	19.148864412168	1.002
17	100744	19.168864412168	1.002
17	100939	19.188864412168	1.002
17	101067	19.208864412168	1.002
17	101077	19.228864412168	1.002
17	101087	19.248864412168	1.002
17	101635	19.268864412168	1.002
17	101830	19.288864412168	1.002
17	101958	19.308864412168	1.002
17	101968	19.328864412168	1.002
17	101978	19.348864412168	1.002
17	102553	19.368864412168	1.002
17	102748	19.388864412168	1.002
17	102876	19.408864412168	1.002
17	102886	19.428864412168	1.002
17	102896	19.448864412168	1.002
17	103449	19.468864412168	1.002
17	103644	19.488864412168	1.002
17	103772	19.508864412168	1.002
17	103782	19.528864412168	1.002
17	103792	19.548864412168	1.002
17	104367	19.568864412168	1.002
17	104562	19.588864412168	1.002
17	104690	19.608864412168	1.002
17	104700	19.628864412168	1.002
17	104710	19.648864412168	1.002
17	105237	19.668864412168	1.002
17	105432	19.688864412168	1.002
17	105560	19.708864412168	1.002
17	105570	19.728864412168	1.002
17	105580	19.748864412168	1.002
17	106144	19.768864412168	1.002
17	106339	19.788864412168	1.002
17	106467	19.808864412168	1.002
17	106477	19.828864412168	1.002
17	106487	19.848864412168	1.002
17	107046	19.868864412168	1.002
17	107241	19.888864412168	1.002
17	107369	19.908864412168	1.002
17	107379	19.928864412168	1.002
17	107389	19.948864412168	1.002
17	107948	19.968864412168	1.002
17	108143	19.988864412168	1.002
17	108271	20.008864412168	1.002
17	108281	20.028864412168	1.002
17	108291	20.048864412168	1.002
17	108839	20.068864412168	1.002
17	109034	20.088864412168	1.002
17	109162	20.108864412168	1.002
17	109172	20.128864412168	1.002
17	109182	20.148864412168	1.002
17	109762	20.168864412168	1.002
17	109957	20.188864412168	1.002
17	110085	20.208864412168	1.002
17	110095	20.228864412168	1.002
17	110105	20.248864412168	1.002
17	110691	20.268864412168	1.002
17	110886	20.288864412168	1.002
17	111014	20.308864412168	1.002
17	111024	20.328864412168	1.002
17	111034	20.348864412168	1.002
17	111620	20.368864412168	1.002
17	111815	20.388864412168	1.002
17	111943	20.408864412168	1.002
17	111953	20.428864412168	1.002
17	111963	20.448864412168	1.002
17	112522	20.468864412168	1.002
17	112717	20.488864412168	1.002
17	112845	20.508864412168	1.002
17	112855	20.528864412168	1.002
17	112865	20.548864412168	1.002
17	113419	20.568864412168	1.002
17	113614	20.588864412168	1.002
17	113742	20.608864412168	1.002
17	113752	20.628864412168	1.002
17	113762	20.648864412168	1.002
17	114316	20.668864412168	1.002
17	114511	20.688864412168	1.002
17	114639	20.708864412168	1.002
17	114649	20.728864412168	1.002
17	114659	20.748864412168	1.002
17	115197	20.768864412168	1.002
17	115392	20.788864412168	1.002
17	115520	20.808864412168	1.002
17	115530	20.828864412168	1.002
17	115540	20.848864412168	1.002
17	116104	20.868864412168	1.002
17	116299	20.888864412168	1.002
17	116427	20.908864412168	1.002
17	116437	20.928864412168	1.002
17	116447	20.948864412168	1.002
17	117022	20.968864412168	1.002
17	117217	20.988864412168	1.002
17	117345	21.008864412168	1.002
17	117355	21.028864412168	1.002
17	117365	21.048864412168	1.002
17	117919	21.068864412168	1.002
17	118114	21.088864412168	1.002
17	118242	21.108864412168	1.002
17	118252	21.128864412168	1.002
17	118262	21.148864412168	1.002
17	118848	21.168864412168	1.002
17	119043	21.188864412168	1.002
17	119171	21.208864412168	1.002
17	119181	21.228864412168	1.002
17	119191	21.248864412168	1.002
17	119734	21.268864412168	1.002
17	119929	21.288864412168	1.002
17	120057	21.308864412168	1.002
17	120067	21.328864412168	1.002
17	120077	21.348864412168	1.002
17	120679	21.368864412168	1.002
17	120874	21.388864412168	1.002
17	121002	21.408864412168	1.002
17	121012	21.428864412168	1.002
17	121022	21.448864412168	1.002
17	121592	21.468864412168	1.002
17	121787	21.488864412168	1.002
17	121915	21.508864412168	1.002
17	121925	21.528864412168	1.002
17	121935	21.548864412168	1.002
17	122499	21.568864412168	1.002
17	122694	21.588864412168	1.002
17	122822	21.608864412168	1.002
17	122832	21.628864412168	1.002
17	122842	21.648864412168	1.002
17	123428	21.668864412168	1.002
17	123623	21.688864412168	1.002
17	123751	21.708864412168	1.002
17	123761	21.728864412168	1.002
17	123771	21.748864412168	1.002
17	124346	21.768864412168	1.002
17	124541	21.788864412168	1.002
17	124669	21.808864412168	1.002
17	124679	21.828864412168	1.002
17	124689	21.848864412168	1.002
17	125259	21.868864412168	1.002
17	125454	21.888864412168	1.002
17	125582	21.908864412168	1.002
17	125592	21.928864412168	1.002
17	125602	21.948864412168	1.002
17	126188	21.968864412168	1.002
17	126383	21.988864412168	1.002
17	126511	22.008864412168	1.002
17	126521	22.028864412168	1.002
17	126531	22.048864412168	1.002
17	127096	22.068864412168	1.002
17	127291	22.088864412168	1.002
17	127419	22.108864412168	1.002
17	127429	22.128864412168	1.002
17	127439	22.148864412168	1.002
17	127982	22.168864412168	1.002
17	128177	22.188864412168	1.002
17	128305	22.208864412168	1.002
17	128315	22.228864412168	1.002
17	128325	22.248864412168	1.002
17	128873	22.268864412168	1.002
17	129068	22.288864412168	1.002
17	129196	22.308864412168	1.002
17	129206	22.328864412168	1.002
17	129216	22.348864412168	1.002
17	129786	22.368864412168	1.002
17	129981	22.388864412168	1.002
17	130109	22.408864412168	1.002
17	130119	22.428864412168	1.002
17	130129	22.448864412168	1.002
17	130683	22.468864412168	1.002
17	130878	22.488864412168	1.002
17	131006	22.508864412168	1.002
17	131016	22.528864412168	1.002
17	131026	22.548864412168	1.002
17	131633	22.568864412168	1.002
17	131828	22.588864412168	1.002
17	131956	22.608864412168	1.002
17	131966	22.628864412168	1.002
17	131976	22.648864412168	1.002
17	132530	22.668864412168	1.002
17	132725	22.688864412168	1.002
17	132853	22.708864412168	1.002
17	132863	22.728864412168	1.002
17	132873	22.748864412168	1.002
17	133437	22.768864412168	1.002
17	133632	22.788864412168	1.002
17	133760	22.808864412168	1.002
17	133770	22.828864412168	1.002
17	133780	22.848864412168	1.002
17	134355	22.868864412168	1.002
17	134550	22.888864412168	1.002
17	134678	22.908864412168	1.002
17	134688	22.928864412168	1.002
17	134698	22.948864412168	1.002
17	135246	22.968864412168	1.002
17	135441	22.988864412168	1.002
17	135569	23.008864412168	1.002
17	135579	23.028864412168	1.002
17	135589	23.048864412168	1.002
17	136170	23.068864412168	1.002
17	136365	23.088864412168	1.002
17	136493	23.108864412168	1.002
17	136503	23.128864412168	1.002
17	136513	23.148864412168	1.002
17	137045	23.168864412168	1.002
17	137240	23.188864412168	1.002
17	137368	23.208864412168	1.002
17	137378	23.228864412168	1.002
17	137388	23.248864412168	1.002
17	137915	23.268864412168	1.002
17	138110	23.288864412168	1.002
17	138238	23.308864412168	1.002
17	138248	23.328864412168	1.002
17	138258	23.348864412168	1.002
17	138833	23.368864412168	1.002
17	139028	23.388864412168	1.002
17	139156	23.408864412168	1.002
17	139166	23.428864412168	1.002
17	139176	23.448864412168	1.002
17	139751	23.468864412168	1.002
17	139946	23.488864412168	1.002
17	140074	23.508864412168	1.002
17	140084	23.528864412168	1.002
17	140094	23.548864412168	1.002
17	140653	23.568864412168	1.002
17	140848	23.588864412168	1.002
17	140976	23.608864412168	1.002
17	140986	23.628864412168	1.002
17	140996	23.648864412168	1.002
17	141571	23.668864412168	1.002
17	141766	23.688864412168	1.002
17	141894	23.708864412168	1.002
17	141904	23.728864412168	1.002
17	141914	23.748864412168	1.002
17	142473	23.768864412168	1.002
17	142668	23.788864412168	1.002
17	142796	23.808864412168	1.002
17	142806	23.828864412168	1.002
17	142816	23.848864412168	1.002
17	143381	23.868864412168	1.002
17	143576	23.888864412168	1.002
17	143704	23.908864412168	1.002
17	143714	23.928864412168	1.002
17	143724	23.948864412168	1.002
17	144283	23.968864412168	1.002
17	144478	23.988864412168	1.002
17	144606	24.008864412168	1.002
17	144616	24.028864412168	1.002
17	144626	24.048864412168	1.002
17	145185	24.068864412168	1.002
17	145380	24.088864412168	1.002
17	145508	24.108864412168	1.002
17	145518	24.128864412168	1.002
17	145528	24.148864412168	1.002
17	146098	24.168864412168	1.002
17	146293	24.188864412168	1.002
17	146421	24.208864412168	1.002
17	146431	24.228864412168	1.002
17	146441	24.248864412168	1.002
17	146989	24.268864412168	1.002
17	147184	24.288864412168	1.002
17	147312	24.308864412168	1.002
17	147322	24.328864412168	1.002
17	147332	24.348864412168	1.002
17	147880	24.368864412168	1.002
17	148075	24.388864412168	1.002
17	148203	24.408864412168	1.002
17	148213	24.428864412168	1.002
17	148223	24.448864412168	1.002
17	148804	24.468864412168	1.002
17	148999	24.488864412168	1.002
17	149127	24.508864412168	1.002
17	149137	24.528864412168	1.002
17	149147	24.548864412168	1.002
17	149728	24.568864412168	1.002
17	149923	24.588864412168	1.002
17	150051	24.608864412168	1.002
17	150061	24.628864412168	1.002
17	150071	24.648864412168	1.002
17	150625	24.668864412168	1.002
17	150820	24.688864412168	1.002
17	150948	24.708864412168	1.002
17	150958	24.728864412168	1.002
17	150968	24.748864412168	1.002
17	151538	24.768864412168	1.002
17	151733	24.788864412168	1.002
17	151861	24.808864412168	1.002
17	151871	24.828864412168	1.002
17	151881	24.848864412168	1.002
17	152440	24.868864412168	1.002
17	152635	24.888864412168	1.002
17	152763	24.908864412168	1.002
17	152773	24.928864412168	1.002
17	152783	24.948864412168	1.002
17	153326	24.968864412168	1.002
17	153521	24.988864412168	1.002
17	153649	25.008864412168	1.002
17	153659	25.028864412168	1.002
17	153669	25.048864412168	1.002
17	154239	25.068864412168	1.002
17	154434	25.088864412168	1.002
17	154562	25.108864412168	1.002
17	154572	25.128864412168	1.002
17	154582	25.148864412168	1.002
17	155141	25.168864412168	1.002
17	155336	25.188864412168	1.002
17	155464	25.208864412168	1.002
17	155474	25.228864412168	1.002
17	155484	25.248864412168	1.002
17	156043	25.268864412168	1.002
17	156238	25.288864412168	1.002
17	156366	25.308864412168	1.002
17	156376	25.328864412168	1.002
17	156386	25.348864412168	1.002
17	156972	25.368864412168	1.002
17	157167	25.388864412168	1.002
17	157295	25.408864412168	1.002
17	157305	25.428864412168	1.002
17	157315	25.448864412168	1.002
17	157879	25.468864412168	1.002
17	158074	25.488864412168	1.002
17	158202	25.508864412168	1.002
17	158212	25.528864412168	1.002
17	158222	25.548864412168	1.002
17	158792	25.568864412168	1.002
17	158987	25.588864412168	1.002
17	159115	25.608864412168	1.002
17	159125	25.628864412168	1.002
17	159135	25.648864412168	1.002
17	159694	25.668864412168	1.002
17	159889	25.688864412168	1.002
17	160017	25.708864412168	1.002
17	160027	25.728864412168	1.002
17	160037	25.748864412168	1.002
17	160591	25.768864412168	1.002
17	160786	25.788864412168	1.002
17	160914	25.808864412168	1.002
17	160924	25.828864412168	1.002
17	160934	25.848864412168	1.002
17	161509	25.868864412168	1.002
17	161704	25.888864412168	1.002
17	161832	25.908864412168	1.002
17	161842	25.928864412168	1.002
17	161852	25.948864412168	1.002
17	162411	25.968864412168	1.002
17	162606	25.988864412168	1.002
17	162734	26.008864412168	1.002
17	162744	26.028864412168	1.002
17	162754	26.048864412168	1.002
17	163308	26.068864412168	1.002
17	163503	26.088864412168	1.002
17	163631	26.108864412168	1.002
17	163641	26.128864412168	1.002
17	163651	26.148864412168	1.002
17	164199	26.168864412168	1.002
17	164394	26.188864412168	1.002
17	164522	26.208864412168	1.002
17	164532	26.228864412168	1.002
17	164542	26.248864412168	1.002
17	165101	26.268864412168	1.002
17	165296	26.288864412168	1.002
17	165424	26.308864412168	1.002
17	165434	26.328864412168	1.002
17	165444	26.348864412168	1.002
17	166003	26.368864412168	1.002
17	166198	26.388864412168	1.002
17	166326	26.408864412168	1.002
17	166336	26.428864412168	1.002
17	166346	26.448864412168	1.002
17	166905	26.468864412168	1.002
17	167100	26.488864412168	1.002
17	167228	26.508864412168	1.002
17	167238	26.528864412168	1.002
17	167248	26.548864412168	1.002
17	167818	26.568864412168	1.002
17	168013	26.588864412168	1.002
17	168141	26.608864412168	1.002
17	168151	26.628864412168	1.002
17	168161	26.648864412168	1.002
17	168747	26.668864412168	1.002
17	168942	26.688864412168	1.002
17	169070	26.708864412168	1.002
17	169080	26.728864412168	1.002
17	169090	26.748864412168	1.002
17	169660	26.768864412168	1.002
17	169855	26.788864412168	1.002
17	169983	26.808864412168	1.002
17	169993	26.828864412168	1.002
17	170003	26.848864412168	1.002
17	170541	26.868864412168	1.002
17	170736	26.888864412168	1.002
17	170864	26.908864412168	1.002
17	170874	26.928864412168	1.002
17	170884	26.948864412168	1.002
17	171438	26.968864412168	1.002
17	171633	26.988864412168	1.002
17	171761	27.008864412168	1.002
17	171771	27.028864412168	1.002
17	171781	27.048864412168	1.002
17	172319	27.068864412168	1.002
17	172514	27.088864412168	1.002
17	172642	27.108864412168	1.002
17	172652	27.128864412168	1.002
17	172662	27.148864412168	1.002
17	173226	27.168864412168	1.002
17	173421	27.188864412168	1.002
17	173549	27.208864412168	1.002
17	173559	27.228864412168	1.002
17	173569	27.248864412168	1.002
17	174139	27.268864412168	1.002
17	174334	27.288864412168	1.002
17	174462	27.308864412168	1.002
17	174472	27.328864412168	1.002
17	174482	27.348864412168	1.002
17	175036	27.368864412168	1.002
17	175231	27.388864412168	1.002
17	175359	27.408864412168	1.002
17	175369	27.428864412168	1.002
17	175379	27.448864412168	1.002
17	175938	27.468864412168	1.002
17	176133	27.488864412168	1.002
17	176261	27.508864412168	1.002
17	176271	27.528864412168	1.002
17	176281	27.548864412168	1.002
17	176835	27.568864412168	1.002
17	177030	27.588864412168	1.002
17	177158	27.608864412168	1.002
17	177168	27.628864412168	1.002
17	177178	27.648864412168	1.002
17	177721	27.668864412168	1.002
17	177916	27.688864412168	1.002
17	178044	27.708864412168	1.002
17	178054	27.728864412168	1.002
17	178064	27.748864412168	1.002
17	178601	27.768864412168	1.002
17	178796	27.788864412168	1.002
17	178924	27.808864412168	1.002
17	178934	27.828864412168	1.002
17	178944	27.848864412168	1.002
17	179514	27.868864412168	1.002
17	179709	27.888864412168	1.002
17	179837	27.908864412168	1.002
17	179847	27.928864412168	1.002
17	179857	27.948864412168	1.002
17	180427	27.968864412168	1.002
17	180622	27.988864412168	1.002
17	180750	28.008864412168	1.002
17	180760	28.028864412168	1.002
17	180770	28.048864412168	1.002
17	181356	28.068864412168	1.002
17	181551	28.088864412168	1.002
17	181679	28.108864412168	1.002
17	181689	28.128864412168	1.002
17	181699	28.148864412168	1.002
17	182296	28.168864412168	1.002
17	182491	28.188864412168	1.002
17	182619	28.208864412168	1.002
17	182629	28.228864412168	1.002
17	182639	28.248864412168	1.002
17	183225	28.268864412168	1.002
17	183420	28.288864412168	1.002
17	183548	28.308864412168	1.002
17	183558	28.328864412168	1.002
17	183568	28.348864412168	1.002
17	184116	28.368864412168	1.002
17	184311	28.388864412168	1.002
17	184439	28.408864412168	1.002
17	184449	28.428864412168	1.002
17	184459	28.448864412168	1.002
17	185018	28.468864412168	1.002
17	185213	28.488864412168	1.002
17	185341	28.508864412168	1.002
17	185351	28.528864412168	1.002
17	185361	28.548864412168	1.002
17	185931	28.568864412168	1.002
17	186126	28.588864412168	1.002
17	186254	28.608864412168	1.002
17	186264	28.628864412168	1.002
17	186274	28.648864412168	1.002
17	186860	28.668864412168	1.002
17	187055	28.688864412168	1.002
17	187183	28.708864412168	1.002
17	187193	28.728864412168	1.002
17	187203	28.748864412168	1.002
17	187773	28.768864412168	1.002
17	187968	28.788864412168	1.002
17	188096	28.808864412168	1.002
17	188106	28.828864412168	1.002
17	188116	28.848864412168	1.002
17	188675	28.868864412168	1.002
17	188870	28.888864412168	1.002
17	188998	28.908864412168	1.002
17	189008	28.928864412168	1.002
17	189018	28.948864412168	1.002
17	189571	28.968864412168	1.002
17	189766	28.988864412168	1.002
17	189894	29.008864412168	1.002
17	189904	29.028864412168	1.002
17	189914	29.048864412168	1.002
17	190473	29.068864412168	1.002
17	190668	29.088864412168	1.002
17	190796	29.108864412168	1.002
17	190806	29.128864412168	1.002
17	190816	29.148864412168	1.002
17	191386	29.168864412168	1.002
17	191581	29.188864412168	1.002
17	191709	29.208864412168	1.002
17	191719	29.228864412168	1.002
17	191729	29.248864412168	1.002
17	192331	29.268864412168	1.002
17	192526	29.288864412168	1.002
17	192654	29.308864412168	1.002
17	192664	29.328864412168	1.002
17	192674	29.348864412168	1.002
17	193255	29.368864412168	1.002
17	193450	29.388864412168	1.002
17	193578	29.408864412168	1.002
17	193588	29.428864412168	1.002
17	193598	29.448864412168	1.002
17	194168	29.468864412168	1.002
17	194363	29.488864412168	1.002
17	194491	29.508864412168	1.002
17	194501	29.528864412168	1.002
17	194511	29.548864412168	1.002
17	195097	29.568864412168	1.002
17	195292	29.588864412168	1.002
17	195420	29.608864412168	1.002
17	195430	29.628864412168	1.002
17	195440	29.648864412168	1.002
17	195988	29.668864412168	1.002
17	196183	29.688864412168	1.002
17	196311	29.708864412168	1.002
17	196321	29.728864412168	1.002
17	196331	29.748864412168	1.002
17	196890	29.768864412168	1.002
17	197085	29.788864412168	1.002
17	197213	29.808864412168	1.002
17	197223	29.828864412168	1.002
17	197233	29.848864412168	1.002
17	197808	29.868864412168	1.002
17	198003	29.888864412168	1.002
17	198131	29.908864412168	1.002
17	198141	29.928864412168	1.002
17	198151	29.948864412168	1.002
17	198726	29.968864412168	1.002
17	198921	29.988864412168	1.002
17	199049	30.008864412168	1.002
17	199059	30.028864412168	1.002
17	199069	30.048864412168	1.002
17	199634	30.068864412168	1.002
17	199829	30.088864412168	1.002
17	199957	30.108864412168	1.002
17	199967	30.128864412168	1.002
17	199977	30.148864412168	1.002
17	200552	30.168864412168	1.002
17	200747	30.188864412168	1.002
17	200875	30.208864412168	1.002
17	200885	30.228864412168	1.002
17	200895	30.248864412168	1.002
17	201460	30.268864412168	1.002
17	201655	30.288864412168	1.002
17	201783	30.308864412168	1.002
17	201793	30.328864412168	1.002
17	201803	30.348864412168	1.002
17	202336	30.368864412168	1.002
17	202531	30.388864412168	1.002
17	202659	30.408864412168	1.002
17	202669	30.428864412168	1.002
17	202679	30.448864412168	1.002
17	203254	30.468864412168	1.002
17	203449	30.488864412168	1.002
17	203577	30.508864412168	1.002
17	203587	30.528864412168	1.002
17	203597	30.548864412168	1.002
17	204172	30.568864412168	1.002
17	204367	30.588864412168	1.002
17	204495	30.608864412168	1.002
17	204505	30.628864412168	1.002
17	204515	30.648864412168	1.002
17	205079	30.668864412168	1.002
17	205274	30.688864412168	1.002
17	205402	30.708864412168	1.002
17	205412	30.728864412168	1.002
17	205422	30.748864412168	1.002
17	206008	30.768864412168	1.002
17	206203	30.788864412168	1.002
17	206331	30.808864412168	1.002
17	206341	30.828864412168	1.002
17	206351	30.848864412168	1.002
17	206905	30.868864412168	1.002
17	207100	30.888864412168	1.002
17	207228	30.908864412168	1.002
17	207238	30.928864412168	1.002
17	207248	30.948864412168	1.002
17	207834	30.968864412168	1.002
17	208029	30.988864412168	1.002
17	208157	31.008864412168	1.002
17	208167	31.028864412168	1.002
17	208177	31.048864412168	1.002
17	208736	31.068864412168	1.002
17	208931	31.088864412168	1.002
17	209059	31.108864412168	1.002
17	209069	31.128864412168	1.002
17	209079	31.148864412168	1.002
17	209627	31.168864412168	1.002
17	209822	31.188864412168	1.002
17	209950	31.208864412168	1.002
17	209960	31.228864412168	1.002
17	209970	31.248864412168	1.002
17	210545	31.268864412168	1.002
17	210740	31.288864412168	1.002
17	210868	31.308864412168	1.002
17	210878	31.328864412168	1.002
17	210888	31.348864412168	1.002
17	211442	31.368864412168	1.002
17	211637	31.388864412168	1.002
17	211765	31.408864412168	1.002
17	211775	31.428864412168	1.002
17	211785	31.448864412168	1.002
17	212339	31.468864412168	1.002
17	212534	31.488864412168	1.002
17	212662	31.508864412168	1.002
17	212672	31.528864412168	1.002
17	212682	31.548864412168	1.002
17	213230	31.568864412168	1.002
17	213425	31.588864412168	1.002
17	213553	31.608864412168	1.002
17	213563	31.628864412168	1.002
17	213573	31.648864412168	1.002
17	214132	31.668864412168	1.002
17	214327	31.688864412168	1.002
17	214455	31.708864412168	1.002
17	214465	31.728864412168	1.002
17	214475	31.748864412168	1.002
17	215029	31.768864412168	1.002
17	215224	31.788864412168	1.002
17	215352	31.808864412168	1.002
17	215362	31.828864412168	1.002
17	215372	31.848864412168	1.002
17	215958	31.868864412168	1.002
17	216153	31.888864412168	1.002
17	216281	31.908864412168	1.002
17	216291	31.928864412168	1.002
17	216301	31.948864412168	1.002
17	216887	31.968864412168	1.002
17	217082	31.988864412168	1.002
17	217210	32.008864412168	1.002
17	217220	32.028864412168	1.002
17	217230	32.048864412168	1.002
17	217795	32.068864412168	1.002
17	217990	32.088864412168	1.002
17	218118	32.108864412168	1.002
17	218128	32.128864412168	1.002
17	218138	32.148864412168	1.002
17	218724	32.168864412168	1.002
17	218919	32.188864412168	1.002
17	219047	32.208864412168	1.002
17	219057	32.228864412168	1.002
17	219067	32.248864412168	1.002
17	219626	32.268864412168	1.002
17	219821	32.288864412168	1.002
17	219949	32.308864412168	1.002
17	219959	32.328864412168	1.002
17	219969	32.348864412168	1.002
17	220528	32.368864412168	1.002
17	220723	32.388864412168	1.002
17	220851	32.408864412168	1.002
17	220861	32.428864412168	1.002
17	220871	32.448864412168	1.002
17	221419	32.468864412168	1.002
17	221614	32.488864412168	1.002
17	221742	32.508864412168	1.002
17	221752	32.528864412168	1.002
17	221762	32.548864412168	1.002
17	222316	32.568864412168	1.002
17	222511	32.588864412168	1.002
17	222639	32.608864412168	1.002
17	222649	32.628864412168	1.002
17	222659	32.648864412168	1.002
17	223202	32.668864412168	1.002
17	223397	32.688864412168	1.002
17	223525	32.708864412168	1.002
17	223535	32.728864412168	1.002
17	223545	32.748864412168	1.002
17	224115	32.768864412168	1.002
17	224310	32.788864412168	1.002
17	224438	32.808864412168	1.002
17	224448	32.828864412168	1.002
17	224458	32.848864412168	1.002
17	225012	32.868864412168	1.002
17	225207	32.888864412168	1.002
17	225335	32.908864412168	1.002
17	225345	32.928864412168	1.002
17	225355	32.948864412168	1.002
17	225887	32.968864412168	1.002
17	226082	32.988864412168	1.002
17	226210	33.008864412168	1.002
17	226220	33.028864412168	1.002
17	226230	33.048864412168	1.002
17	226789	33.068864412168	1.002
17	226984	33.088864412168	1.002
17	227112	33.108864412168	1.002
17	227122	33.128864412168	1.002
17	227132	33.148864412168	1.002
17	227691	33.168864412168	1.002
17	227886	33.188864412168	1.002
17	228014	33.208864412168	1.002
17	228024	33.228864412168	1.002
17	228034	33.248864412168	1.002
17	228620	33.268864412168	1.002
17	228815	33.288864412168	1.002
17	228943	33.308864412168	1.002
17	228953	33.328864412168	1.002
17	228963	33.348864412168	1.002
17	229538	33.368864412168	1.002
17	229733	33.388864412168	1.002
17	229861	33.408864412168	1.002
17	229871	33.428864412168	1.002
17	229881	33.448864412168	1.002
17	230445	33.468864412168	1.002
17	230640	33.488864412168	1.002
17	230768	33.508864412168	1.002
17	230778	33.528864412168	1.002
17	230788	33.548864412168	1.002
17	231331	33.568864412168	1.002
17	231526	33.588864412168	1.002
17	231654	33.608864412168	1.002
17	231664	33.628864412168	1.002
17	231674	33.648864412168	1.002
17	232228	33.668864412168	1.002
17	232423	33.688864412168	1.002
17	232551	33.708864412168	1.002
17	232561	33.728864412168	1.002
17	232571	33.748864412168	1.002
17	233104	33.768864412168	1.002
17	233299	33.788864412168	1.002
17	233427	33.808864412168	1.002
17	233437	33.828864412168	1.002
17	233447	33.848864412168	1.002
17	234006	33.868864412168	1.002
17	234201	33.888864412168	1.002
17	234329	33.908864412168	1.002
17	234339	33.928864412168	1.002
17	234349	33.948864412168	1.002
17	234924	33.968864412168	1.002
17	235119	33.988864412168	1.002
17	235247	34.008864412168	1.002
17	235257	34.028864412168	1.002
17	235267	34.048864412168	1.002
17	235831	34.068864412168	1.002
17	236026	34.088864412168	1.002
17	236154	34.108864412168	1.002
17	236164	34.128864412168	1.002
17	236174	34.148864412168	1.002
17	236733	34.168864412168	1.002
17	236928	34.188864412168	1.002
17	237056	34.208864412168	1.002
17	237066	34.228864412168	1.002
17	237076	34.248864412168	1.002
17	237641	34.268864412168	1.002
17	237836	34.288864412168	1.002
17	237964	34.308864412168	1.002
17	237974	34.328864412168	1.002
17	237984	34.348864412168	1.002
17	238533	34.368864412168	1.002
17	238728	34.388864412168	1.002
17	238856	34.408864412168	1.002
17	238866	34.428864412168	1.002
17	238876	34.448864412168	1.002
17	239430	34.468864412168	1.002
17	239625	34.488864412168	1.002
17	239753	34.508864412168	1.002
17	239763	34.528864412168	1.002
17	239773	34.548864412168	1.002
17	240348	34.568864412168	1.002
17	240543	34.588864412168	1.002
17	240671	34.608864412168	1.002
17	240681	34.628864412168	1.002
17	240691	34.648864412168	1.002
17	241266	34.668864412168	1.002
17	241461	34.688864412168	1.002
17	241589	34.708864412168	1.002
17	241599	34.728864412168	1.002
17	241609	34.748864412168	1.002
17	242190	34.768864412168	1.002
17	242385	34.788864412168	1.002
17	242513	34.808864412168	1.002
17	242523	34.828864412168	1.002
17	242533	34.848864412168	1.002
17	243087	34.868864412168	1.002
17	243282	34.888864412168	1.002
17	243410	34.908864412168	1.002
17	243420	34.928864412168	1.002
17	243430	34.948864412168	1.002
17	243994	34.968864412168	1.002
17	244189	34.988864412168	1.002
17	244317	35.008864412168	1.002
17	244327	35.028864412168	1.002
17	244337	35.048864412168	1.002
17	244885	35.068864412168	1.002
17	245080	35.088864412168	1.002
17	245208	35.108864412168	1.002
17	245218	35.128864412168	1.002
17	245228	35.148864412168	1.002
17	245781	35.168864412168	1.002
17	245976	35.188864412168	1.002
17	246104	35.208864412168	1.002
17	246114	35.228864412168	1.002
17	246124	35.248864412168	1.002
17	246683	35.268864412168	1.002
17	246878	35.288864412168	1.002
17	247006	35.308864412168	1.002
17	247016	35.328864412168	1.002
17	247026	35.348864412168	1.002
17	247596	35.368864412168	1.002
17	247791	35.388864412168	1.002
17	247919	35.408864412168	1.002
17	247929	35.428864412168	1.002
17	247939	35.448864412168	1.002
17	248525	35.468864412168	1.002
17	248720	35.488864412168	1.002
17	248848	35.508864412168	1.002
17	248858	35.528864412168	1.002
17	248868	35.548864412168	1.002
17	249438	35.568864412168	1.002
17	249633	35.588864412168	1.002
17	249761	35.608864412168	1.002
17	249771	35.628864412168	1.002
17	249781	35.648864412168	1.002
17	250346	35.668864412168	1.002
17	250541	35.688864412168	1.002
17	250669	35.708864412168	1.002
17	250679	35.728864412168	1.002
17	250689	35.748864412168	1.002
17	251270	35.768864412168	1.002
17	251465	35.788864412168	1.002
17	251593	35.808864412168	1.002
17	251603	35.828864412168	1.002
17	251613	35.848864412168	1.002
17	252215	35.868864412168	1.002
17	252410	35.888864412168	1.002
17	252538	35.908864412168	1.002
17	252548	35.928864412168	1.002
17	252558	35.948864412168	1.002
17	253101	35.968864412168	1.002
17	253296	35.988864412168	1.002
17	253424	36.008864412168	1.002
17	253434	36.028864412168	1.002
17	253444	36.048864412168	1.002
17	254014	36.068864412168	1.002
17	254209	36.088864412168	1.002
17	254337	36.108864412168	1.002
17	254347	36.128864412168	1.002
17	254357	36.148864412168	1.002
17	254938	36.168864412168	1.002
17	255133	36.188864412168	1.002
17	255261	36.208864412168	1.002
17	255271	36.228864412168	1.002
17	255281	36.248864412168	1.002
17	255829	36.268864412168	1.002
17	256024	36.288864412168	1.002
17	256152	36.308864412168	1.002
17	256162	36.328864412168	1.002
17	256172	36.348864412168	1.002
17	256725	36.368864412168	1.002
17	256920	36.388864412168	1.002
17	257048	36.408864412168	1.002
17	257058	36.428864412168	1.002
17	257068	36.448864412168	1.002
17	257617	36.468864412168	1.002
17	257812	36.488864412168	1.002
17	257940	36.508864412168	1.002
17	257950	36.528864412168	1.002
17	257960	36.548864412168	1.002
17	258551	36.568864412168	1.002
17	258746	36.588864412168	1.002
17	258874	36.608864412168	1.002
17	258884	36.628864412168	1.002
17	258894	36.648864412168	1.002
17	259475	36.668864412168	1.002
17	259670	36.688864412168	1.002
17	259798	36.708864412168	1.002
17	259808	36.728864412168	1.002
17	259818	36.748864412168	1.002
17	260377	36.768864412168	1.002
17	260572	36.788864412168	1.002
17	260700	36.808864412168	1.002
17	260710	36.828864412168	1.002
17	260720	36.848864412168	1.002
17	261279	36.868864412168	1.002
17	261474	36.888864412168	1.002
17	261602	36.908864412168	1.002
17	261612	36.928864412168	1.002
17	261622	36.948864412168	1.002
17	262208	36.968864412168	1.002
17	262403	36.988864412168	1.002
17	262531	37.008864412168	1.002
17	262541	37.028864412168	1.002
17	262551	37.048864412168	1.002
17	263105	37.068864412168	1.002
17	263300	37.088864412168	1.002
17	263428	37.108864412168	1.002
17	263438	37.128864412168	1.002
17	263448	37.148864412168	1.002
17	264023	37.168864412168	1.002
17	264218	37.188864412168	1.002
17	264346	37.208864412168	1.002
17	264356	37.228864412168	1.002
17	264366	37.248864412168	1.002
17	264936	37.268864412168	1.002
17	265131	37.288864412168	1.002
17	265259	37.308864412168	1.002
17	265269	37.328864412168	1.002
17	265279	37.348864412168	1.002
17	265827	37.368864412168	1.002
17	266022	37.388864412168	1.002
17	266150	37.408864412168	1.002
17	266160	37.428864412168	1.002
17	266170	37.448864412168	1.002
17	266745	37.468864412168	1.002
17	266940	37.488864412168	1.002
17	267068	37.508864412168	1.002
17	267078	37.528864412168	1.002
17	267088	37.548864412168	1.002
17	267631	37.568864412168	1.002
17	267826	37.588864412168	1.002
17	267954	37.608864412168	1.002
17	267964	37.628864412168	1.002
17	267974	37.648864412168	1.002
17	268560	37.668864412168	1.002
17	268755	37.688864412168	1.002
17	268883	37.708864412168	1.002
17	268893	37.728864412168	1.002
17	268903	37.748864412168	1.002
17	269451	37.768864412168	1.002
17	269646	37.788864412168	1.002
17	269774	37.808864412168	1.002
17	269784	37.828864412168	1.002
17	269794	37.848864412168	1.002
17	270337	37.868864412168	1.002
17	270532	37.888864412168	1.002
17	270660	37.908864412168	1.002
17	270670	37.928864412168	1.002
17	270680	37.948864412168	1.002
17	271255	37.968864412168	1.002
17	271450	37.988864412168	1.002
17	271578	38.008864412168	1.002
17	271588	38.028864412168	1.002
17	271598	38.048864412168	1.002
17	272157	38.068864412168	1.002
17	272352	38.088864412168	1.002
17	272480	38.108864412168	1.002
17	272490	38.128864412168	1.002
17	272500	38.148864412168	1.002
17	273102	38.168864412168	1.002
17	273297	38.188864412168	1.002
17	273425	38.208864412168	1.002
17	273435	38.228864412168	1.002
17	273445	38.248864412168	1.002
17	274015	38.268864412168	1.002
17	274210	38.288864412168	1.002
17	274338	38.308864412168	1.002
17	274348	38.328864412168	1.002
17	274358	38.348864412168	1.002
17	274917	38.368864412168	1.002
17	275112	38.388864412168	1.002
17	275240	38.408864412168	1.002
17	275250	38.428864412168	1.002
17	275260	38.448864412168	1.002
17	275814	38.468864412168	1.002
17	276009	38.488864412168	1.002
17	276137	38.508864412168	1.002
17	276147	38.528864412168	1.002
17	276157	38.548864412168	1.002
17	276727	38.568864412168	1.002
17	276922	38.588864412168	1.002
17	277050	38.608864412168	1.002
17	277060	38.628864412168	1.002
17	277070	38.648864412168	1.002
17	277623	38.668864412168	1.002
17	277818	38.688864412168	1.002
17	277946	38.708864412168	1.002
17	277956	38.728864412168	1.002
17	277966	38.748864412168	1.002
17	278514	38.768864412168	1.002
17	278709	38.788864412168	1.002
17	278837	38.808864412168	1.002
17	278847	38.828864412168	1.002
17	278857	38.848864412168	1.002
17	279410	38.868864412168	1.002
17	279605	38.888864412168	1.002
17	279733	38.908864412168	1.002
17	279743	38.928864412168	1.002
17	279753	38.948864412168	1.002
17	280302	38.968864412168	1.002
17	280497	38.988864412168	1.002
17	280625	39.008864412168	1.002
17	280635	39.028864412168	1.002
17	280645	39.048864412168	1.002
17	281231	39.068864412168	1.002
17	281426	39.088864412168	1.002
17	281554	39.108864412168	1.002
17	281564	39.128864412168	1.002
17	281574	39.148864412168	1.002
17	282133	39.168864412168	1.002
17	282328	39.188864412168	1.002
17	282456	39.208864412168	1.002
17	282466	39.228864412168	1.002
17	282476	39.248864412168	1.002
17	283046	39.268864412168	1.002
17	283241	39.288864412168	1.002
17	283369	39.308864412168	1.002
17	283379	39.328864412168	1.002
17	283389	39.348864412168	1.002
17	283953	39.368864412168	1.002
17	284148	39.388864412168	1.002
17	284276	39.408864412168	1.002
17	284286	39.428864412168	1.002
17	284296	39.448864412168	1.002
17	284844	39.468864412168	1.002
17	285039	39.488864412168	1.002
17	285167	39.508864412168	1.002
17	285177	39.528864412168	1.002
17	285187	39.548864412168	1.002
17	285757	39.568864412168	1.002
17	285952	39.588864412168	1.002
17	286080	39.608864412168	1.002
17	286090	39.628864412168	1.002
17	286100	39.648864412168	1.002
17	286670	39.668864412168	1.002
17	286865	39.688864412168	1.002
17	286993	39.708864412168	1.002
17	287003	39.728864412168	1.002
17	287013	39.748864412168	1.002
17	287561	39.768864412168	1.002
17	287756	39.788864412168	1.002
17	287884	39.808864412168	1.002
17	287894	39.828864412168	1.002
17	287904	39.848864412168	1.002
17	288458	39.868864412168	1.002
17	288653	39.888864412168	1.002
17	288781	39.908864412168	1.002
17	288791	39.928864412168	1.002
17	288801	39.948864412168	1.002
17	289360	39.968864412168	1.002
17	289555	39.988864412168	1.002
17	289683	40.008864412168	1.002
17	289693	40.028864412168	1.002
17	289703	40.048864412168	1.002
17	290262	40.068864412168	1.002
17	290457	40.088864412168	1.002
17	290585	40.108864412168	1.002
17	290595	40.128864412168	1.002
17	290605	40.148864412168	1.002
17	291164	40.168864412168	1.002
17	291359	40.188864412168	1.002
17	291487	40.208864412168	1.002
17	291497	40.228864412168	1.002
17	291507	40.248864412168	1.002
17	292082	40.268864412168	1.002
17	292277	40.288864412168	1.002
17	292405	40.308864412168	1.002
17	292415	40.328864412168	1.002
17	292425	40.348864412168	1.002
17	292989	40.368864412168	1.002
17	293184	40.388864412168	1.002
17	293312	40.408864412168	1.002
17	293322	40.428864412168	1.002
17	293332	40.448864412168	1.002
17	293918	40.468864412168	1.002
17	294113	40.488864412168	1.002
17	294241	40.508864412168	1.002
17	294251	40.528864412168	1.002
17	294261	40.548864412168	1.002
17	294847	40.568864412168	1.002
17	295042	40.588864412168	1.002
17	295170	40.608864412168	1.002
17	295180	40.628864412168	1.002
17	295190	40.648864412168	1.002
17	295760	40.668864412168	1.002
17	295955	40.688864412168	1.002
17	296083	40.708864412168	1.002
17	296093	40.728864412168	1.002
17	296103	40.748864412168	1.002
17	296667	40.768864412168	1.002
17	296862	40.788864412168	1.002
17	296990	40.808864412168	1.002
17	297000	40.828864412168	1.002
17	297010	40.848864412168	1.002
17	297575	40.868864412168	1.002
17	297770	40.888864412168	1.002
17	297898	40.908864412168	1.002
17	297908	40.928864412168	1.002
17	297918	40.948864412168	1.002
17	298483	40.968864412168	1.002
17	298678	40.988864412168	1.002
17	298806	41.008864412168	1.002
17	298816	41.028864412168	1.002
17	298826	41.048864412168	1.002
17	299374	41.068864412168	1.002
17	299569	41.088864412168	1.002
17	299697	41.108864412168	1.002
17	299707	41.128864412168	1.002
17	299717	41.148864412168	1.002
17	300287	41.168864412168	1.002
17	300482	41.188864412168	1.002
17	300610	41.208864412168	1.002
17	300620	41.228864412168	1.002
17	300630	41.248864412168	1.002
17	301173	41.268864412168	1.002
17	301368	41.288864412168	1.002
17	301496	41.308864412168	1.002
17	301506	41.328864412168	1.002
17	301516	41.348864412168	1.002
17	302102	41.368864412168	1.002
17	302297	41.388864412168	1.002
17	302425	41.408864412168	1.002
17	302435	41.428864412168	1.002
17	302445	41.448864412168	1.002
17	303004	41.468864412168	1.002
17	303199	41.488864412168	1.002
17	303327	41.508864412168	1.002
17	303337	41.528864412168	1.002
17	303347	41.548864412168	1.002
17	303911	41.568864412168	1.002
17	304106	41.588864412168	1.002
17	304234	41.608864412168	1.002
17	304244	41.628864412168	1.002
17	304254	41.648864412168	1.002
17	304813	41.668864412168	1.002
17	305008	41.688864412168	1.002
17	305136	41.708864412168	1.002
17	305146	41.728864412168	1.002
17	305156	41.748864412168	1.002
17	305715	41.768864412168	1.002
17	305910	41.788864412168	1.002
17	306038	41.808864412168	1.002
17	306048	41.828864412168	1.002
17	306058	41.848864412168	1.002
17	306633	41.868864412168	1.002
17	306828	41.888864412168	1.002
17	306956	41.908864412168	1.002
17	306966	41.928864412168	1.002
17	306976	41.948864412168	1.002
17	307573	41.968864412168	1.002
17	307768	41.988864412168	1.002
17	307896	42.008864412168	1.002
17	307906	42.028864412168	1.002
17	307916	42.048864412168	1.002
17	308481	42.068864412168	1.002
17	308676	42.088864412168	1.002
17	308804	42.108864412168	1.002
17	308814	42.128864412168	1.002
17	308824	42.148864412168	1.002
17	309437	42.168864412168	1.002
17	309632	42.188864412168	1.002
17	309760	42.208864412168	1.002
17	309770	42.228864412168	1.002
17	309780	42.248864412168	1.002
17	310366	42.268864412168	1.002
17	310561	42.288864412168	1.002
17	310689	42.308864412168	1.002
17	310699	42.328864412168	1.002
17	310709	42.348864412168	1.002
17	311279	42.368864412168	1.002
17	311474	42.388864412168	1.002
17	311602	42.408864412168	1.002
17	311612	42.428864412168	1.002
17	311622	42.448864412168	1.002
17	312192	42.468864412168	1.002
17	312387	42.488864412168	1.002
17	312515	42.508864412168	1.002
17	312525	42.528864412168	1.002
17	312535	42.548864412168	1.002
17	313089	42.568864412168	1.002
17	313284	42.588864412168	1.002
17	313412	42.608864412168	1.002
17	313422	42.628864412168	1.002
17	313432	42.648864412168	1.002
17	314029	42.668864412168	1.002
17	314224	42.688864412168	1.002
17	314352	42.708864412168	1.002
17	314362	42.728864412168	1.002
17	314372	42.748864412168	1.002
17	314910	42.768864412168	1.002
17	315105	42.788864412168	1.002
17	315233	42.808864412168	1.002
17	315243	42.828864412168	1.002
17	315253	42.848864412168	1.002
17	315791	42.868864412168	1.002
17	315986	42.888864412168	1.002
17	316114	42.908864412168	1.002
17	316124	42.928864412168	1.002
17	316134	42.948864412168	1.002
17	316709	42.968864412168	1.002
17	316904	42.988864412168	1.002
17	317032	43.008864412168	1.002
17	317042	43.028864412168	1.002
17	317052	43.048864412168	1.002
17	317616	43.068864412168	1.002
17	317811	43.088864412168	1.002
17	317939	43.108864412168	1.002
17	317949	43.128864412168	1.002
17	317959	43.148864412168	1.002
17	318540	43.168864412168	1.002
17	318735	43.188864412168	1.002
17	318863	43.208864412168	1.002
17	318873	43.228864412168	1.002
17	318883	43.248864412168	1.002
17	319485	43.268864412168	1.002
17	319680	43.288864412168	1.002
17	319808	43.308864412168	1.002
17	319818	43.328864412168	1.002
17	319828	43.348864412168	1.002
17	320398	43.368864412168	1.002
17	320593	43.388864412168	1.002
17	320721	43.408864412168	1.002
17	320731	43.428864412168	1.002
17	320741	43.448864412168	1.002
17	321311	43.468864412168	1.002
17	321506	43.488864412168	1.002
17	321634	43.508864412168	1.002
17	321644	43.528864412168	1.002
17	321654	43.548864412168	1.002
17	322207	43.568864412168	1.002
17	322402	43.588864412168	1.002
17	322530	43.608864412168	1.002
17	322540	43.628864412168	1.002
17	322550	43.648864412168	1.002
17	323104	43.668864412168	1.002
17	323299	43.688864412168	1.002
17	323427	43.708864412168	1.002
17	323437	43.728864412168	1.002
17	323447	43.748864412168	1.002
17	324028	43.768864412168	1.002
17	324223	43.788864412168	1.002
17	324351	43.808864412168	1.002
17	324361	43.828864412168	1.002
17	324371	43.848864412168	1.002
17	324935	43.868864412168	1.002
17	325130	43.888864412168	1.002
17	325258	43.908864412168	1.002
17	325268	43.928864412168	1.002
17	325278	43.948864412168	1.002
17	325842	43.968864412168	1.002
17	326037	43.988864412168	1.002
17	326165	44.008864412168	1.002
17	326175	44.028864412168	1.002
17	326185	44.048864412168	1.002
17	326728	44.068864412168	1.002
17	326923	44.088864412168	1.002
17	327051	44.108864412168	1.002
17	327061	44.128864412168	1.002
17	327071	44.148864412168	1.002
17	327625	44.168864412168	1.002
17	327820	44.188864412168	1.002
17	327948	44.208864412168	1.002
17	327958	44.228864412168	1.002
17	327968	44.248864412168	1.002
17	328559	44.268864412168	1.002
17	328754	44.288864412168	1.002
17	328882	44.308864412168	1.002
17	328892	44.328864412168	1.002
17	328902	44.348864412168	1.002
17	329472	44.368864412168	1.002
17	329667	44.388864412168	1.002
17	329795	44.408864412168	1.002
17	329805	44.428864412168	1.002
17	329815	44.448864412168	1.002
17	330385	44.468864412168	1.002
17	330580	44.488864412168	1.002
17	330708	44.508864412168	1.002
17	330718	44.528864412168	1.002
17	330728	44.548864412168	1.002
17	331292	44.568864412168	1.002
17	331487	44.588864412168	1.002
17	331615	44.608864412168	1.002
17	331625	44.628864412168	1.002
17	331635	44.648864412168	1.002
17	332216	44.668864412168	1.002
17	332411	44.688864412168	1.002
17	332539	44.708864412168	1.002
17	332549	44.728864412168	1.002
17	332559	44.748864412168	1.002
17	333124	44.768864412168	1.002
17	333319	44.788864412168	1.002
17	333447	44.808864412168	1.002
17	333457	44.828864412168	1.002
17	333467	44.848864412168	1.002
17	334021	44.868864412168	1.002
17	334216	44.888864412168	1.002
17	334344	44.908864412168	1.002
17	334354	44.928864412168	1.002
17	334364	44.948864412168	1.002
17	334902	44.968864412168	1.002
17	335097	44.988864412168	1.002
17	335225	45.008864412168	1.002
17	335235	45.028864412168	1.002
17	335245	45.048864412168	1.002
17	335814	45.068864412168	1.002
17	336009	45.088864412168	1.002
17	336137	45.108864412168	1.002
17	336147	45.128864412168	1.002
17	336157	45.148864412168	1.002
17	336716	45.168864412168	1.002
17	336911	45.188864412168	1.002
17	337039	45.208864412168	1.002
17	337049	45.228864412168	1.002
17	337059	45.248864412168	1.002
17	337596	45.268864412168	1.002
17	337791	45.288864412168	1.002
17	337919	45.308864412168	1.002
17	337929	45.328864412168	1.002
17	337939	45.348864412168	1.002
17	338504	45.368864412168	1.002
17	338699	45.388864412168	1.002
17	338827	45.408864412168	1.002
17	338837	45.428864412168	1.002
17	338847	45.448864412168	1.002
17	339417	45.468864412168	1.002
17	339612	45.488864412168	1.002
17	339740	45.508864412168	1.002
17	339750	45.528864412168	1.002
17	339760	45.548864412168	1.002
17	340325	45.568864412168	1.002
17	340520	45.588864412168	1.002
17	340648	45.608864412168	1.002
17	340658	45.628864412168	1.002
17	340668	45.648864412168	1.002
17	341200	45.668864412168	1.002
17	341395	45.688864412168	1.002
17	341523	45.708864412168	1.002
17	341533	45.728864412168	1.002
17	341543	45.748864412168	1.002
17	342075	45.768864412168	1.002
17	342270	45.788864412168	1.002
17	342398	45.808864412168	1.002
17	342408	45.828864412168	1.002
17	342418	45.848864412168	1.002
17	342955	45.868864412168	1.002
17	343150	45.888864412168	1.002
17	343278	45.908864412168	1.002
17	343288	45.928864412168	1.002
17	343298	45.948864412168	1.002
17	343852	45.968864412168	1.002
17	344047	45.988864412168	1.002
17	344175	46.008864412168	1.002
17	344185	46.028864412168	1.002
17	344195	46.048864412168	1.002
17	344765	46.068864412168	1.002
17	344960	46.088864412168	1.002
17	345088	46.108864412168	1.002
17	345098	46.128864412168	1.002
17	345108	46.148864412168	1.002
17	345689	46.168864412168	1.002
17	345884	46.188864412168	1.002
17	346012	46.208864412168	1.002
17	346022	46.228864412168	1.002
17	346032	46.248864412168	1.002
17	346591	46.268864412168	1.002
17	346786	46.288864412168	1.002
17	346914	46.308864412168	1.002
17	346924	46.328864412168	1.002
17	346934	46.348864412168	1.002
17	347504	46.368864412168	1.002
17	347699	46.388864412168	1.002
17	347827	46.408864412168	1.002
17	347837	46.428864412168	1.002
17	347847	46.448864412168	1.002
17	348412	46.468864412168	1.002
17	348607	46.488864412168	1.002
17	348735	46.508864412168	1.002
17	348745	46.528864412168	1.002
17	348755	46.548864412168	1.002
17	349325	46.568864412168	1.002
17	349520	46.588864412168	1.002
17	349648	46.608864412168	1.002
17	349658	46.628864412168	1.002
17	349668	46.648864412168	1.002
17	350222	46.668864412168	1.002
17	350417	46.688864412168	1.002
17	350545	46.708864412168	1.002
17	350555	46.728864412168	1.002
17	350565	46.748864412168	1.002
17	351129	46.768864412168	1.002
17	351324	46.788864412168	1.002
17	351452	46.808864412168	1.002
17	351462	46.828864412168	1.002
17	351472	46.848864412168	1.002
17	352015	46.868864412168	1.002
17	352210	46.888864412168	1.002
17	352338	46.908864412168	1.002
17	352348	46.928864412168	1.002
17	352358	46.948864412168	1.002
17	352912	46.968864412168	1.002
17	353107	46.988864412168	1.002
17	353235	47.008864412168	1.002
17	353245	47.028864412168	1.002
17	353255	47.048864412168	1.002
17	353803	47.068864412168	1.002
17	353998	47.088864412168	1.002
17	354126	47.108864412168	1.002
17	354136	47.128864412168	1.002
17	354146	47.148864412168	1.002
17	354716	47.168864412168	1.002
17	354911	47.188864412168	1.002
17	355039	47.208864412168	1.002
17	355049	47.228864412168	1.002
17	355059	47.248864412168	1.002
17	355629	47.268864412168	1.002
17	355824	47.288864412168	1.002
17	355952	47.308864412168	1.002
17	355962	47.328864412168	1.002
17	355972	47.348864412168	1.002
17	356531	47.368864412168	1.002
17	356726	47.388864412168	1.002
17	356854	47.408864412168	1.002
17	356864	47.428864412168	1.002
17	356874	47.448864412168	1.002
17	357444	47.468864412168	1.002
17	357639	47.488864412168	1.002
17	357767	47.508864412168	1.002
17	357777	47.528864412168	1.002
17	357787	47.548864412168	1.002
17	358362	47.568864412168	1.002
17	358557	47.588864412168	1.002
17	358685	47.608864412168	1.002
17	358695	47.628864412168	1.002
17	358705	47.648864412168	1.002
17	359275	47.668864412168	1.002
17	359470	47.688864412168	1.002
17	359598	47.708864412168	1.002
17	359608	47.728864412168	1.002
17	359618	47.748864412168	1.002
17	360193	47.768864412168	1.002
17	360388	47.788864412168	1.002
17	360516	47.808864412168	1.002
17	360526	47.828864412168	1.002
17	360536	47.848864412168	1.002
17	361089	47.868864412168	1.002
17	361284	47.888864412168	1.002
17	361412	47.908864412168	1.002
[...]
14	333437	44.800051808597	0.002
14	333471	44.850051808597	0.001
14	334334	44.900051808597	0.002
14	334368	44.950051808597	0.001
14	335215	45.000051808597	0.002
14	335249	45.050051808597	0.001
14	336127	45.100051808597	0.002
14	336161	45.150051808597	0.001
14	337029	45.200051808597	0.002
14	337063	45.250051808597	0.001
14	337909	45.300051808597	0.002
14	337943	45.350051808597	0.001
14	338817	45.400051808597	0.002
14	338851	45.450051808597	0.001
14	339730	45.500051808597	0.002
14	339764	45.550051808597	0.001
14	340638	45.600051808597	0.002
14	340672	45.650051808597	0.001
14	341513	45.700051808597	0.002
14	341547	45.750051808597	0.001
14	342388	45.800051808597	0.002
14	342422	45.850051808597	0.001
14	343268	45.900051808597	0.002
14	343302	45.950051808597	0.001
14	344165	46.000051808597	0.002
14	344199	46.050051808597	0.001
14	345078	46.100051808597	0.002
14	345112	46.150051808597	0.001
14	346002	46.200051808597	0.002
14	346036	46.250051808597	0.001
14	346904	46.300051808597	0.002
14	346938	46.350051808597	0.001
14	347817	46.400051808597	0.002
14	347851	46.450051808597	0.001
14	348725	46.500051808597	0.002
14	348759	46.550051808597	0.001
14	349638	46.600051808597	0.002
14	349672	46.650051808597	0.001
14	350535	46.700051808597	0.002
14	350569	46.750051808597	0.001
14	351442	46.800051808597	0.002
14	351476	46.850051808597	0.001
14	352328	46.900051808597	0.002
14	352362	46.950051808597	0.001
14	353225	47.000051808597	0.002
14	353259	47.050051808597	0.001
14	354116	47.100051808597	0.002
14	354150	47.150051808597	0.001
14	355029	47.200051808597	0.002
14	355063	47.250051808597	0.001
14	355942	47.300051808597	0.002
14	355976	47.350051808597	0.001
14	356844	47.400051808597	0.002
14	356878	47.450051808597	0.001
14	357757	47.500051808597	0.002
14	357791	47.550051808597	0.001
14	358675	47.600051808597	0.002
14	358709	47.650051808597	0.001
14	359588	47.700051808597	0.002
14	359622	47.750051808597	0.001
14	360506	47.800051808597	0.002
14	360540	47.850051808597	0.001
14	361402	47.900051808597	0.002
14	361436	47.950051808597	0.001
14	362325	48.000051808597	0.002
14	362359	48.050051808597	0.001
14	363233	48.100051808597	0.002
14	363267	48.150051808597	0.001
14	364119	48.200051808597	0.002
14	364153	48.250051808597	0.001
14	365016	48.300051808597	0.002
14	365050	48.350051808597	0.001
14	365907	48.400051808597	0.002
14	365941	48.450051808597	0.001
14	366809	48.500051808597	0.002
14	366843	48.550051808597	0.001
14	367706	48.600051808597	0.002
14	367740	48.650051808597	0.001
14	368630	48.700051808597	0.002
14	368664	48.750051808597	0.001
14	369553	48.800051808597	0.002
14	369587	48.850051808597	0.001
14	370455	48.900051808597	0.002
14	370489	48.950051808597	0.001
14	371357	49.000051808597	0.002
14	371391	49.050051808597	0.001
14	372254	49.100051808597	0.002
14	372288	49.150051808597	0.001
14	373145	49.200051808597	0.002
14	373179	49.250051808597	0.001
14	374047	49.300051808597	0.002
14	374081	49.350051808597	0.001
14	374949	49.400051808597	0.002
14	374983	49.450051808597	0.001
14	375862	49.500051808597	0.002
14	375896	49.550051808597	0.001
14	376758	49.600051808597	0.002
14	376792	49.650051808597	0.001
14	377660	49.700051808597	0.002
14	377694	49.750051808597	0.001
14	378589	49.800051808597	0.002
14	378623	49.850051808597	0.001
14	379502	49.900051808597	0.002
14	379536	49.950051808597	0.001
14	380420	50.000051808597	0.002
14	380454	50.050051808597	0.001
14	381338	50.100051808597	0.002
14	381372	50.150051808597	0.001
14	382251	50.200051808597	0.002
14	382285	50.250051808597	0.001
14	383174	50.300051808597	0.002
14	383208	50.350051808597	0.001
14	384082	50.400051808597	0.002
14	384116	50.450051808597	0.001
14	384962	50.500051808597	0.002
14	384996	50.550051808597	0.001
14	385843	50.600051808597	0.002
14	385877	50.650051808597	0.001
14	386756	50.700051808597	0.002
14	386790	50.750051808597	0.001
14	387647	50.800051808597	0.002
14	387681	50.850051808597	0.001
14	388565	50.900051808597	0.002
14	388599	50.950051808597	0.001
14	389483	51.000051808597	0.002
14	389517	51.050051808597	0.001
14	390385	51.100051808597	0.002
14	390419	51.150051808597	0.001
14	391271	51.200051808597	0.002
14	391305	51.250051808597	0.001
14	392189	51.300051808597	0.002
14	392223	51.350051808597	0.001
14	393080	51.400051808597	0.002
14	393114	51.450051808597	0.001
14	393977	51.500051808597	0.002
14	394011	51.550051808597	0.001
14	394884	51.600051808597	0.002
14	394918	51.650051808597	0.001
14	395781	51.700051808597	0.002
14	395815	51.750051808597	0.001
14	396667	51.800051808597	0.002
14	396701	51.850051808597	0.001
14	397585	51.900051808597	0.002
14	397619	51.950051808597	0.001
14	398498	52.000051808597	0.002
14	398532	52.050051808597	0.001
14	399427	52.100051808597	0.002
14	399461	52.150051808597	0.001
14	400329	52.200051808597	0.002
14	400363	52.250051808597	0.001
14	401236	52.300051808597	0.002
14	401270	52.350051808597	0.001
14	402143	52.400051808597	0.002
14	402177	52.450051808597	0.001
14	403056	52.500051808597	0.002
14	403090	52.550051808597	0.001
14	403947	52.600051808597	0.002
14	403981	52.650051808597	0.001
14	404860	52.700051808597	0.002
14	404894	52.750051808597	0.001
14	405762	52.800051808597	0.002
14	405796	52.850051808597	0.001
14	406686	52.900051808597	0.002
14	406720	52.950051808597	0.001
14	407588	53.000051808597	0.002
14	407622	53.050051808597	0.001
14	408495	53.100051808597	0.002
14	408529	53.150051808597	0.001
14	409413	53.200051808597	0.002
14	409447	53.250051808597	0.001
14	410310	53.300051808597	0.002
14	410344	53.350051808597	0.001
14	411207	53.400051808597	0.002
14	411241	53.450051808597	0.001
14	412093	53.500051808597	0.002
14	412127	53.550051808597	0.001
14	412990	53.600051808597	0.002
14	413024	53.650051808597	0.001
14	413854	53.700051808597	0.002
14	413888	53.750051808597	0.001
14	414778	53.800051808597	0.002
14	414812	53.850051808597	0.001
14	415680	53.900051808597	0.002
14	415714	53.950051808597	0.001
14	416554	54.000051808597	0.002
14	416588	54.050051808597	0.001
14	417462	54.100051808597	0.002
14	417496	54.150051808597	0.001
14	418375	54.200051808597	0.002
14	418409	54.250051808597	0.001
14	419288	54.300051808597	0.002
14	419322	54.350051808597	0.001
14	420196	54.400051808597	0.002
14	420230	54.450051808597	0.001
14	421109	54.500051808597	0.002
14	421143	54.550051808597	0.001
14	422016	54.600051808597	0.002
14	422050	54.650051808597	0.001
14	422934	54.700051808597	0.002
14	422968	54.750051808597	0.001
14	423836	54.800051808597	0.002
14	423870	54.850051808597	0.001
14	424716	54.900051808597	0.002
14	424750	54.950051808597	0.001
14	425623	55.000051808597	0.002
14	425657	55.050051808597	0.001
14	426531	55.100051808597	0.002
14	426565	55.150051808597	0.001
14	427444	55.200051808597	0.002
14	427478	55.250051808597	0.001
14	428346	55.300051808597	0.002
14	428380	55.350051808597	0.001
14	429248	55.400051808597	0.002
14	429282	55.450051808597	0.001
14	430134	55.500051808597	0.002
14	430168	55.550051808597	0.001
14	431031	55.600051808597	0.002
14	431065	55.650051808597	0.001
14	431922	55.700051808597	0.002
14	431956	55.750051808597	0.001
14	432813	55.800051808597	0.002
14	432847	55.850051808597	0.001
14	433704	55.900051808597	0.002
14	433738	55.950051808597	0.001
14	434638	56.000051808597	0.002
14	434672	56.050051808597	0.001
14	435535	56.100051808597	0.002
14	435569	56.150051808597	0.001
14	436437	56.200051808597	0.002
14	436471	56.250051808597	0.001
14	437334	56.300051808597	0.002
14	437368	56.350051808597	0.001
14	438252	56.400051808597	0.002
14	438286	56.450051808597	0.001
14	439159	56.500051808597	0.002
14	439193	56.550051808597	0.001
14	440061	56.600051808597	0.002
14	440095	56.650051808597	0.001
14	440968	56.700051808597	0.002
14	441002	56.750051808597	0.001
14	441843	56.800051808597	0.002
14	441877	56.850051808597	0.001
14	442745	56.900051808597	0.002
14	442779	56.950051808597	0.001
14	443653	57.000051808597	0.002
14	443687	57.050051808597	0.001
14	444566	57.100051808597	0.002
14	444600	57.150051808597	0.001
14	445468	57.200051808597	0.002
14	445502	57.250051808597	0.001
14	446354	57.300051808597	0.002
14	446388	57.350051808597	0.001
14	447278	57.400051808597	0.002
14	447312	57.450051808597	0.001
14	448153	57.500051808597	0.002
14	448187	57.550051808597	0.001
14	449066	57.600051808597	0.002
14	449100	57.650051808597	0.001
14	449968	57.700051808597	0.002
14	450002	57.750051808597	0.001
14	450876	57.800051808597	0.002
14	450910	57.850051808597	0.001
14	451789	57.900051808597	0.002
14	451823	57.950051808597	0.001
14	452664	58.000051808597	0.002
14	452698	58.050051808597	0.001
14	453577	58.100051808597	0.002
14	453611	58.150051808597	0.001
14	454473	58.200051808597	0.002
14	454507	58.250051808597	0.001
14	455381	58.300051808597	0.002
14	455415	58.350051808597	0.001
14	456283	58.400051808597	0.002
14	456317	58.450051808597	0.001
14	457201	58.500051808597	0.002
14	457235	58.550051808597	0.001
14	458108	58.600051808597	0.002
14	458142	58.650051808597	0.001
14	459026	58.700051808597	0.002
14	459060	58.750051808597	0.001
14	459939	58.800051808597	0.002
14	459973	58.850051808597	0.001
14	460852	58.900051808597	0.002
14	460886	58.950051808597	0.001
14	461770	59.000051808597	0.002
14	461804	59.050051808597	0.001
14	462656	59.100051808597	0.002
14	462690	59.150051808597	0.001
14	463569	59.200051808597	0.002
14	463603	59.250051808597	0.001
14	464476	59.300051808597	0.002
14	464510	59.350051808597	0.001
14	465378	59.400051808597	0.002
14	465412	59.450051808597	0.001
14	466264	59.500051808597	0.002
14	466298	59.550051808597	0.001
14	467161	59.600051808597	0.002
14	467195	59.650051808597	0.001
14	468079	59.700051808597	0.002
14	468113	59.750051808597	0.001
14	468992	59.800051808597	0.002
14	469026	59.850051808597	0.001
14	469883	59.900051808597	0.002
14	469917	59.950051808597	0.001
14	470807	60.000051808597	0.002
14	470841	60.050051808597	0.001
14	471709	60.100051808597	0.002
14	471743	60.150051808597	0.001
14	472589	60.200051808597	0.002
14	472623	60.250051808597	0.001
14	473502	60.300051808597	0.002
14	473536	60.350051808597	0.001
14	474404	60.400051808597	0.002
14	474438	60.450051808597	0.001
14	475311	60.500051808597	0.002
14	475345	60.550051808597	0.001
14	476218	60.600051808597	0.002
14	476252	60.650051808597	0.001
14	477109	60.700051808597	0.002
14	477143	60.750051808597	0.001
14	478022	60.800051808597	0.002
14	478056	60.850051808597	0.001
14	478930	60.900051808597	0.002
14	478964	60.950051808597	0.001
14	479837	61.000051808597	0.002
14	479871	61.050051808597	0.001
14	480750	61.100051808597	0.002
14	480784	61.150051808597	0.001
14	481695	61.200051808597	0.002
14	481729	61.250051808597	0.001
14	482619	61.300051808597	0.002
14	482653	61.350051808597	0.001
14	483510	61.400051808597	0.002
14	483544	61.450051808597	0.001
14	484396	61.500051808597	0.002
14	484430	61.550051808597	0.001
14	485298	61.600051808597	0.002
14	485332	61.650051808597	0.001
14	486194	61.700051808597	0.002
14	486222	61.750051808597	0.001
14	486839	61.800051808597	0.002
14	486867	61.850051808597	0.001
14	487457	61.900051808597	0.002
14	487485	61.950051808597	0.001
14	488080	62.000051808597	0.002
14	488108	62.050051808597	0.001
14	488716	62.100051808597	0.002
14	488744	62.150051808597	0.001
14	489343	62.200051808597	0.002
14	489371	62.250051808597	0.001
14	489970	62.300051808597	0.002
14	489998	62.350051808597	0.001
14	490602	62.400051808597	0.002
14	490630	62.450051808597	0.001
14	491238	62.500051808597	0.002
14	491266	62.550051808597	0.001
14	491883	62.600051808597	0.002
14	491911	62.650051808597	0.001
14	492497	62.700051808597	0.002
14	492525	62.750051808597	0.001
14	493133	62.800051808597	0.002
14	493161	62.850051808597	0.001
14	493760	62.900051808597	0.002
14	493788	62.950051808597	0.001
14	494379	63.000051808597	0.002
14	494407	63.050051808597	0.001
14	494984	63.100051808597	0.002
14	495012	63.150051808597	0.001
14	495620	63.200051808597	0.002
14	495648	63.250051808597	0.001
14	496243	63.300051808597	0.002
14	496271	63.350051808597	0.001
14	496857	63.400051808597	0.002
14	496885	63.450051808597	0.001
14	497480	63.500051808597	0.002
14	497508	63.550051808597	0.001
14	498081	63.600051808597	0.002
14	498109	63.650051808597	0.001
14	498713	63.700051808597	0.002
14	498741	63.750051808597	0.001
14	499349	63.800051808597	0.002
14	499377	63.850051808597	0.001
14	499968	63.900051808597	0.002
14	499996	63.950051808597	0.001
14	500591	64.000051808597	0.002
14	500619	64.050051808597	0.001
14	501223	64.100051808597	0.002
14	501251	64.150051808597	0.001
14	501855	64.200051808597	0.002
14	501883	64.250051808597	0.001
14	502500	64.300051808597	0.002
14	502528	64.350051808597	0.001
14	503119	64.400051808597	0.002
14	503147	64.450051808597	0.001
14	503751	64.500051808597	0.002
14	503779	64.550051808597	0.001
14	504378	64.600051808597	0.002
14	504400	64.650051808597	0.001
14	504775	64.700051808597	0.002
14	504797	64.750051808597	0.001
14	505169	64.800051808597	0.002
14	505191	64.850051808597	0.001
14	505563	64.900051808597	0.002
14	505585	64.950051808597	0.001
14	505957	65.000051808597	0.002
14	505979	65.050051808597	0.001
14	506361	65.100051808597	0.002
14	506383	65.150051808597	0.001
14	506735	65.200051808597	0.002
14	506757	65.250051808597	0.001
14	507122	65.300051808597	0.002
14	507144	65.350051808597	0.001
14	507526	65.400051808597	0.002
14	507548	65.450051808597	0.001
14	507930	65.500051808597	0.002
14	507952	65.550051808597	0.001
14	508324	65.600051808597	0.002
14	508346	65.650051808597	0.001
14	508718	65.700051808597	0.002
14	508740	65.750051808597	0.001
14	509122	65.800051808597	0.002
14	509144	65.850051808597	0.001
14	509516	65.900051808597	0.002
14	509538	65.950051808597	0.001
14	509900	66.000051808597	0.002
14	509922	66.050051808597	0.001
14	510287	66.100051808597	0.002
14	510309	66.150051808597	0.001
14	510691	66.200051808597	0.002
14	510713	66.250051808597	0.001
14	511078	66.300051808597	0.002
14	511100	66.350051808597	0.001
14	511465	66.400051808597	0.002
14	511487	66.450051808597	0.001
14	511859	66.500051808597	0.002
14	511881	66.550051808597	0.001
14	512243	66.600051808597	0.002
14	512265	66.650051808597	0.001
14	512637	66.700051808597	0.002
14	512659	66.750051808597	0.001
14	513031	66.800051808597	0.002
14	513053	66.850051808597	0.001
14	513435	66.900051808597	0.002
14	513457	66.950051808597	0.001
14	513832	67.000051808597	0.002
14	513854	67.050051808597	0.001
14	514236	67.100051808597	0.002
14	514258	67.150051808597	0.001
14	514620	67.200051808597	0.002
14	514642	67.250051808597	0.001
14	515007	67.300051808597	0.002
14	515029	67.350051808597	0.001
14	515411	67.400051808597	0.002
14	515433	67.450051808597	0.001
14	515798	67.500051808597	0.002
14	515820	67.550051808597	0.001
14	516192	67.600051808597	0.002
14	516214	67.650051808597	0.001
14	516586	67.700051808597	0.002
14	516608	67.750051808597	0.001
14	516980	67.800051808597	0.002
14	516995	67.850051808597	0.001
14	517190	67.900051808597	0.002
14	517205	67.950051808597	0.001
14	517393	68.000051808597	0.002
14	517408	68.050051808597	0.001
14	517603	68.100051808597	0.002
14	517618	68.150051808597	0.001
14	517813	68.200051808597	0.002
14	517828	68.250051808597	0.001
14	518030	68.300051808597	0.002
14	518045	68.350051808597	0.001
14	518233	68.400051808597	0.002
14	518248	68.450051808597	0.001
14	518443	68.500051808597	0.002
14	518458	68.550051808597	0.001
14	518660	68.600051808597	0.002
14	518675	68.650051808597	0.001
14	518870	68.700051808597	0.002
14	518885	68.750051808597	0.001
14	519080	68.800051808597	0.002
14	519095	68.850051808597	0.001
14	519283	68.900051808597	0.002
14	519298	68.950051808597	0.001
14	519500	69.000051808597	0.002
14	519515	69.050051808597	0.001
14	519710	69.100051808597	0.002
14	519725	69.150051808597	0.001
14	519920	69.200051808597	0.002
14	519935	69.250051808597	0.001
14	520123	69.300051808597	0.002
14	520138	69.350051808597	0.001
14	520333	69.400051808597	0.002
14	520348	69.450051808597	0.001
14	520543	69.500051808597	0.002
14	520558	69.550051808597	0.001
14	520753	69.600051808597	0.002
14	520768	69.650051808597	0.001
14	520956	69.700051808597	0.002
14	520971	69.750051808597	0.001
14	521173	69.800051808597	0.002
14	521188	69.850051808597	0.001
14	521383	69.900051808597	0.002
14	521398	69.950051808597	0.001
14	521600	70.000051808597	0.002
14	521615	70.050051808597	0.001
14	521803	70.100051808597	0.002
14	521818	70.150051808597	0.001
14	522013	70.200051808597	0.002
14	522028	70.250051808597	0.001
14	522223	70.300051808597	0.002
14	522238	70.350051808597	0.001
14	522426	70.400051808597	0.002
14	522441	70.450051808597	0.001
14	522636	70.500051808597	0.002
14	522651	70.550051808597	0.001
14	522839	70.600051808597	0.002
14	522854	70.650051808597	0.001
14	523042	70.700051808597	0.002
14	523050	70.750051808597	0.001
14	523122	70.800051808597	0.002
14	523130	70.850051808597	0.001
14	523202	70.900051808597	0.002
14	523210	70.950051808597	0.001
14	523282	71.000051808597	0.002
14	523290	71.050051808597	0.001
14	523362	71.100051808597	0.002
14	523370	71.150051808597	0.001
14	523442	71.200051808597	0.002
14	523450	71.250051808597	0.001
14	523522	71.300051808597	0.002
14	523530	71.350051808597	0.001
14	523602	71.400051808597	0.002
14	523610	71.450051808597	0.001
14	523682	71.500051808597	0.002
14	523690	71.550051808597	0.001
14	523762	71.600051808597	0.002
14	523770	71.650051808597	0.001
14	523842	71.700051808597	0.002
14	523850	71.750051808597	0.001
14	523922	71.800051808597	0.002
14	523930	71.850051808597	0.001
14	524002	71.900051808597	0.002
14	524010	71.950051808597	0.001
14	524082	72.000051808597	0.002
14	524090	72.050051808597	0.001
14	524162	72.100051808597	0.002
14	524170	72.150051808597	0.001
14	524242	72.200051808597	0.002
14	524250	72.250051808597	0.001
14	524322	72.300051808597	0.002
14	524330	72.350051808597	0.001
14	524402	72.400051808597	0.002
14	524410	72.450051808597	0.001
14	524482	72.500051808597	0.002
14	524490	72.550051808597	0.001
14	524562	72.600051808597	0.002
14	524570	72.650051808597	0.001
14	524642	72.700051808597	0.002
14	524650	72.750051808597	0.001
14	524722	72.800051808597	0.002
14	524730	72.850051808597	0.001
14	524802	72.900051808597	0.002
14	524810	72.950051808597	0.001
14	524882	73.000051808597	0.002
14	524890	73.050051808597	0.001
14	524962	73.100051808597	0.002
14	524970	73.150051808597	0.001
14	525042	73.200051808597	0.002
14	525050	73.250051808597	0.001
14	525122	73.300051808597	0.002
14	525130	73.350051808597	0.001
14	525202	73.400051808597	0.002
14	525210	73.450051808597	0.001
14	525282	73.500051808597	0.002
14	525290	73.550051808597	0.001
14	525362	73.600051808597	0.002
14	525370	73.650051808597	0.001
14	525442	73.700051808597	0.002
14	525443	73.750051808597	0.001
14	525444	73.800051808597	0.002
14	525445	73.850051808597	0.001
14	525446	73.900051808597	0.002
14	525447	73.950051808597	0.001
14	525448	74.000051808597	0.002
14	525449	74.050051808597	0.001
14	525450	74.100051808597	0.002
14	525451	74.150051808597	0.001
14	525452	74.200051808597	0.002
14	525453	74.250051808597	0.001
14	525454	74.300051808597	0.002
14	525455	74.350051808597	0.001
14	525456	74.400051808597	0.002
14	525457	74.450051808597	0.001
14	525458	74.500051808597	0.002
14	525459	74.550051808597	0.001
14	525460	74.600051808597	0.002
14	525461	74.650051808597	0.001
14	525462	74.700051808597	0.002
14	525463	74.750051808597	0.001
14	525464	74.800051808597	0.002
14	525465	74.850051808597	0.001
14	525466	74.900051808597	0.002
14	525467	74.950051808597	0.001
14	525468	75.000051808597	0.002
14	525469	75.050051808597	0.001
14	525470	75.100051808597	0.002
14	525471	75.150051808597	0.001
14	525472	75.200051808597	0.002
14	525473	75.250051808597	0.001
14	525474	75.300051808597	0.002
14	525475	75.350051808597	0.001
14	525476	75.400051808597	0.002
14	525477	75.450051808597	0.001
14	525478	75.500051808597	0.002
14	525479	75.550051808597	0.001
14	525480	75.600051808597	0.002
14	525481	75.650051808597	0.001
14	525482	75.700051808597	0.002
14	525483	75.750051808597	0.001
14	525484	75.800051808597	0.002
14	525485	75.850051808597	0.001
14	525486	75.900051808597	0.002
14	525487	75.950051808597	0.001
