version 2
run VoIP-50ms_440B-8-20160923-14:17:12-14751
attr configname VoIP-50ms_440B
attr datetime 20160923-14:17:12
attr experiment VoIP-50ms_440B
attr inifile omnetpp.ini
attr iterationvars ""
attr iterationvars2 $repetition=8
attr measurement ""
attr network SymScenerio
attr processid 14751
attr repetition 8
attr replication #8
attr resultdir results
attr runnumber 8
attr seedset 8
param **.coreDebug false
param **.debug false
param *.**.nic.mac1609_4.bitrate 18Mbps
param *.**.nic.mac1609_4.txPower 20mW
param *.**.nic.mac1609_4.useServiceChannel true
param *.**.nic.phy80211p.analogueModels "xmldoc(\"config.xml\")"
param *.**.nic.phy80211p.decider "xmldoc(\"config.xml\")"
param *.**.nic.phy80211p.sensitivity -89dBm
param *.**.nic.phy80211p.thermalNoise -110dBm
param *.**.nic.phy80211p.usePropagationDelay true
param *.**.nic.phy80211p.useThermalNoise true
param *.annotations.draw false
param *.connectionManager.alpha 2.0
param *.connectionManager.carrierFrequency "5.890e9 Hz"
param *.connectionManager.pMax 20mW
param *.connectionManager.sat -89dBm
param *.connectionManager.sendDirect true
param *.manager.autoShutdown true
param *.manager.host "\"localhost\""
param *.manager.launchConfig "xmldoc(\"map.launchd.xml\")"
param *.manager.margin 25
param *.manager.moduleDisplayString "\"\""
param *.manager.moduleName "\"node\""
param *.manager.moduleType "\"symulacja.veins.nodes.Car\""
param *.manager.port 9999
param *.manager.updateInterval 0.1s
param *.node[*].appl.beaconInterval 1s
param *.node[*].appl.beaconPriority 3
param *.node[*].appl.dataOnSch false
param *.node[*].appl.dataPriority 2
param *.node[*].appl.debug false
param *.node[*].appl.maxOffset 0.005s
param *.node[*].appl.sendBeacons false
param *.node[*].appl.sendData true
param *.node[*].appl.sendVoIP true
param *.node[*].appl.voipInterval 0.050s
param *.node[*].appl.voipLengthBits 3520bit
param *.node[*].appl.voipOnSch true
param *.node[*].appl.voipPriority 3
param *.node[*].applType "\"Sym11p\""
param *.node[*].veinsmobility.x 0
param *.node[*].veinsmobility.y 0
param *.node[*].veinsmobility.z 1.895
param *.node[*].veinsmobilityType "\"symulacja.veins.modules.mobility.traci.TraCIMobility\""
param *.playgroundSizeX 9000m
param *.playgroundSizeY 9000m
param *.playgroundSizeZ 50m
param *.rsu[*].appl.beaconInterval 1s
param *.rsu[*].appl.beaconPriority 3
param *.rsu[*].appl.dataOnSch false
param *.rsu[*].appl.dataPriority 2
param *.rsu[*].appl.debug false
param *.rsu[*].appl.headerLength "256 bit"
param *.rsu[*].appl.maxOffset 0.005s
param *.rsu[*].appl.sendBeacons false
param *.rsu[*].appl.sendData false
param *.rsu[*].appl.sendVoIP false
param *.rsu[*].applType "\"SymRSU11p\""
param *.rsu[0].mobility.x 2160
param *.rsu[0].mobility.y 3100
param *.rsu[0].mobility.z 3
param *.world.use2D false
param *.world.useTorus false

vector 14  SymScenerio.rsu[0].nic.mac1609_4  "Interwały kanałów"  ETV
vector 23  SymScenerio.node[0].veinsmobility  posx  ETV
vector 24  SymScenerio.node[0].veinsmobility  posy  ETV
vector 22  SymScenerio.node[0].nic.mac1609_4  "Interwały kanałów"  ETV
vector 25  SymScenerio.node[0].veinsmobility  speed  ETV
vector 26  SymScenerio.node[0].veinsmobility  acceleration  ETV
vector 27  SymScenerio.node[0].veinsmobility  co2emission  ETV
vector 15  SymScenerio.node[0].appl  "TX Packets"  ETV
vector 16  SymScenerio.node[0].appl  "TX Total"  ETV
vector 17  SymScenerio.node[0].appl  Pakietyzacja  ETV
vector 5  SymScenerio.rsu[0].appl  nodeALL:vector  ETV
attr source  nodeALL
attr title  "Opoznienia ALL, vector"
vector 9  SymScenerio.rsu[0].appl  "RX Packet"  ETV
vector 0  SymScenerio.rsu[0].appl  node0:vector  ETV
attr source  node0
attr title  "Opoznienia node0, vector"
vector 36  SymScenerio.node[1].veinsmobility  posx  ETV
vector 37  SymScenerio.node[1].veinsmobility  posy  ETV
vector 35  SymScenerio.node[1].nic.mac1609_4  "Interwały kanałów"  ETV
vector 38  SymScenerio.node[1].veinsmobility  speed  ETV
vector 39  SymScenerio.node[1].veinsmobility  acceleration  ETV
vector 40  SymScenerio.node[1].veinsmobility  co2emission  ETV
vector 28  SymScenerio.node[1].appl  "TX Packets"  ETV
vector 29  SymScenerio.node[1].appl  "TX Total"  ETV
vector 30  SymScenerio.node[1].appl  Pakietyzacja  ETV
vector 1  SymScenerio.rsu[0].appl  node1:vector  ETV
attr source  node1
attr title  "Opoznienia node1, vector"
vector 49  SymScenerio.node[2].veinsmobility  posx  ETV
vector 50  SymScenerio.node[2].veinsmobility  posy  ETV
vector 48  SymScenerio.node[2].nic.mac1609_4  "Interwały kanałów"  ETV
vector 51  SymScenerio.node[2].veinsmobility  speed  ETV
vector 52  SymScenerio.node[2].veinsmobility  acceleration  ETV
vector 53  SymScenerio.node[2].veinsmobility  co2emission  ETV
vector 41  SymScenerio.node[2].appl  "TX Packets"  ETV
vector 42  SymScenerio.node[2].appl  "TX Total"  ETV
vector 43  SymScenerio.node[2].appl  Pakietyzacja  ETV
vector 2  SymScenerio.rsu[0].appl  node2:vector  ETV
attr source  node2
attr title  "Opoznienia node2, vector"
vector 62  SymScenerio.node[3].veinsmobility  posx  ETV
vector 63  SymScenerio.node[3].veinsmobility  posy  ETV
vector 61  SymScenerio.node[3].nic.mac1609_4  "Interwały kanałów"  ETV
vector 64  SymScenerio.node[3].veinsmobility  speed  ETV
vector 65  SymScenerio.node[3].veinsmobility  acceleration  ETV
vector 66  SymScenerio.node[3].veinsmobility  co2emission  ETV
vector 54  SymScenerio.node[3].appl  "TX Packets"  ETV
vector 55  SymScenerio.node[3].appl  "TX Total"  ETV
vector 56  SymScenerio.node[3].appl  Pakietyzacja  ETV
vector 3  SymScenerio.rsu[0].appl  node3:vector  ETV
attr source  node3
attr title  "Opoznienia node3, vector"
vector 75  SymScenerio.node[4].veinsmobility  posx  ETV
vector 76  SymScenerio.node[4].veinsmobility  posy  ETV
vector 74  SymScenerio.node[4].nic.mac1609_4  "Interwały kanałów"  ETV
vector 77  SymScenerio.node[4].veinsmobility  speed  ETV
vector 78  SymScenerio.node[4].veinsmobility  acceleration  ETV
vector 79  SymScenerio.node[4].veinsmobility  co2emission  ETV
vector 67  SymScenerio.node[4].appl  "TX Packets"  ETV
vector 68  SymScenerio.node[4].appl  "TX Total"  ETV
vector 69  SymScenerio.node[4].appl  Pakietyzacja  ETV
vector 4  SymScenerio.rsu[0].appl  node4:vector  ETV
attr source  node4
attr title  "Opoznienia node4, vector"
17	17	0.366364163347	1.002
17	35	0.416364163347	1.002
17	52	0.466364163347	1.002
17	70	0.516364163347	1.002
17	87	0.566364163347	1.002
17	105	0.616364163347	1.002
17	122	0.666364163347	1.002
17	140	0.716364163347	1.002
17	157	0.766364163347	1.002
17	175	0.816364163347	1.002
17	192	0.866364163347	1.002
17	210	0.916364163347	1.002
17	227	0.966364163347	1.002
17	245	1.016364163347	1.002
17	262	1.066364163347	1.002
17	280	1.116364163347	1.002
17	297	1.166364163347	1.002
17	315	1.216364163347	1.002
17	332	1.266364163347	1.002
17	350	1.316364163347	1.002
17	367	1.366364163347	1.002
17	385	1.416364163347	1.002
17	402	1.466364163347	1.002
17	420	1.516364163347	1.002
17	437	1.566364163347	1.002
17	455	1.616364163347	1.002
17	472	1.666364163347	1.002
17	490	1.716364163347	1.002
17	507	1.766364163347	1.002
17	525	1.816364163347	1.002
17	542	1.866364163347	1.002
17	560	1.916364163347	1.002
17	577	1.966364163347	1.002
17	595	2.016364163347	1.002
17	612	2.066364163347	1.002
17	630	2.116364163347	1.002
17	647	2.166364163347	1.002
17	665	2.216364163347	1.002
17	682	2.266364163347	1.002
17	700	2.316364163347	1.002
17	717	2.366364163347	1.002
17	735	2.416364163347	1.002
17	752	2.466364163347	1.002
17	770	2.516364163347	1.002
17	787	2.566364163347	1.002
17	805	2.616364163347	1.002
17	822	2.666364163347	1.002
17	840	2.716364163347	1.002
17	857	2.766364163347	1.002
17	875	2.816364163347	1.002
17	892	2.866364163347	1.002
17	910	2.916364163347	1.002
17	927	2.966364163347	1.002
17	945	3.016364163347	1.002
17	962	3.066364163347	1.002
17	980	3.116364163347	1.002
17	1004	3.166364163347	1.002
17	1029	3.216364163347	1.002
17	1053	3.266364163347	1.002
17	1078	3.316364163347	1.002
17	1102	3.366364163347	1.002
17	1127	3.416364163347	1.002
17	1151	3.466364163347	1.002
17	1176	3.516364163347	1.002
17	1200	3.566364163347	1.002
17	1225	3.616364163347	1.002
17	1249	3.666364163347	1.002
17	1274	3.716364163347	1.002
17	1298	3.766364163347	1.002
17	1323	3.816364163347	1.002
17	1347	3.866364163347	1.002
17	1372	3.916364163347	1.002
17	1396	3.966364163347	1.002
17	1442	4.016364163347	1.002
17	1487	4.066364163347	1.002
17	1533	4.116364163347	1.002
17	1578	4.166364163347	1.002
17	1624	4.216364163347	1.002
17	1669	4.266364163347	1.002
17	1715	4.316364163347	1.002
17	1760	4.366364163347	1.002
17	1806	4.416364163347	1.002
17	1851	4.466364163347	1.002
17	1897	4.516364163347	1.002
17	1942	4.566364163347	1.002
17	1988	4.616364163347	1.002
17	2033	4.666364163347	1.002
17	2079	4.716364163347	1.002
17	2124	4.766364163347	1.002
17	2170	4.816364163347	1.002
17	2215	4.866364163347	1.002
17	2261	4.916364163347	1.002
17	2306	4.966364163347	1.002
17	2352	5.016364163347	1.002
17	2397	5.066364163347	1.002
17	2443	5.116364163347	1.002
17	2488	5.166364163347	1.002
17	2534	5.216364163347	1.002
17	2579	5.266364163347	1.002
17	2625	5.316364163347	1.002
17	2670	5.366364163347	1.002
17	2716	5.416364163347	1.002
17	2761	5.466364163347	1.002
17	2807	5.516364163347	1.002
17	2852	5.566364163347	1.002
17	2898	5.616364163347	1.002
17	2943	5.666364163347	1.002
17	2989	5.716364163347	1.002
17	3034	5.766364163347	1.002
17	3080	5.816364163347	1.002
17	3125	5.866364163347	1.002
17	3171	5.916364163347	1.002
17	3216	5.966364163347	1.002
17	3262	6.016364163347	1.002
17	3307	6.066364163347	1.002
17	3353	6.116364163347	1.002
17	3411	6.166364163347	1.002
17	3470	6.216364163347	1.002
17	3528	6.266364163347	1.002
17	3587	6.316364163347	1.002
17	3645	6.366364163347	1.002
17	3704	6.416364163347	1.002
17	3762	6.466364163347	1.002
17	3821	6.516364163347	1.002
17	3879	6.566364163347	1.002
17	3938	6.616364163347	1.002
17	3996	6.666364163347	1.002
17	4055	6.716364163347	1.002
17	4113	6.766364163347	1.002
17	4199	6.816364163347	1.002
17	4284	6.866364163347	1.002
17	4370	6.916364163347	1.002
17	4455	6.966364163347	1.002
17	4541	7.016364163347	1.002
17	4626	7.066364163347	1.002
17	4712	7.116364163347	1.002
17	4797	7.166364163347	1.002
17	4883	7.216364163347	1.002
17	4968	7.266364163347	1.002
17	5054	7.316364163347	1.002
17	5139	7.366364163347	1.002
17	5225	7.416364163347	1.002
17	5310	7.466364163347	1.002
17	5396	7.516364163347	1.002
17	5481	7.566364163347	1.002
17	5567	7.616364163347	1.002
17	5652	7.666364163347	1.002
17	5738	7.716364163347	1.002
17	5823	7.766364163347	1.002
17	5909	7.816364163347	1.002
17	5994	7.866364163347	1.002
17	6080	7.916364163347	1.002
17	6165	7.966364163347	1.002
17	6251	8.016364163347	1.002
17	6326	8.066364163347	1.002
17	6412	8.116364163347	1.002
17	6497	8.166364163347	1.002
17	6583	8.216364163347	1.002
17	6658	8.266364163347	1.002
17	6744	8.316364163347	1.002
17	6829	8.366364163347	1.002
17	6915	8.416364163347	1.002
17	6990	8.466364163347	1.002
17	7076	8.516364163347	1.002
17	7151	8.566364163347	1.002
17	7237	8.616364163347	1.002
17	7322	8.666364163347	1.002
17	7408	8.716364163347	1.002
17	7493	8.766364163347	1.002
17	7579	8.816364163347	1.002
17	7664	8.866364163347	1.002
17	7750	8.916364163347	1.002
17	7835	8.966364163347	1.002
17	7921	9.016364163347	1.002
17	8006	9.066364163347	1.002
17	8092	9.116364163347	1.002
17	8183	9.166364163347	1.002
17	8288	9.216364163347	1.002
17	8379	9.266364163347	1.002
17	8484	9.316364163347	1.002
17	8588	9.366364163347	1.002
17	8693	9.416364163347	1.002
17	8784	9.466364163347	1.002
17	8889	9.516364163347	1.002
17	8993	9.566364163347	1.002
17	9098	9.616364163347	1.002
17	9202	9.666364163347	1.002
17	9307	9.716364163347	1.002
17	9411	9.766364163347	1.002
17	9516	9.816364163347	1.002
17	9620	9.866364163347	1.002
17	9725	9.916364163347	1.002
17	9829	9.966364163347	1.002
17	9967	10.016364163347	1.002
17	10091	10.066364163347	1.002
17	10229	10.116364163347	1.002
17	10366	10.166364163347	1.002
17	10504	10.216364163347	1.002
17	10628	10.266364163347	1.002
17	10766	10.316364163347	1.002
17	10890	10.366364163347	1.002
17	11028	10.416364163347	1.002
17	11152	10.466364163347	1.002
17	11290	10.516364163347	1.002
17	11414	10.566364163347	1.002
17	11552	10.616364163347	1.002
17	11689	10.666364163347	1.002
17	11827	10.716364163347	1.002
17	11964	10.766364163347	1.002
17	12102	10.816364163347	1.002
17	12226	10.866364163347	1.002
17	12364	10.916364163347	1.002
17	12488	10.966364163347	1.002
17	12626	11.016364163347	1.002
17	12763	11.066364163347	1.002
17	12901	11.116364163347	1.002
17	13025	11.166364163347	1.002
17	13163	11.216364163347	1.002
17	13300	11.266364163347	1.002
17	13438	11.316364163347	1.002
17	13575	11.366364163347	1.002
17	13713	11.416364163347	1.002
17	13837	11.466364163347	1.002
17	13975	11.516364163347	1.002
17	14112	11.566364163347	1.002
17	14250	11.616364163347	1.002
17	14374	11.666364163347	1.002
17	14512	11.716364163347	1.002
17	14636	11.766364163347	1.002
17	14774	11.816364163347	1.002
17	14898	11.866364163347	1.002
17	15036	11.916364163347	1.002
17	15160	11.966364163347	1.002
17	15298	12.016364163347	1.002
17	15435	12.066364163347	1.002
17	15573	12.116364163347	1.002
17	15735	12.166364163347	1.002
17	15898	12.216364163347	1.002
17	16060	12.266364163347	1.002
17	16223	12.316364163347	1.002
17	16358	12.366364163347	1.002
17	16521	12.416364163347	1.002
17	16667	12.466364163347	1.002
17	16830	12.516364163347	1.002
17	16977	12.566364163347	1.002
17	17140	12.616364163347	1.002
17	17287	12.666364163347	1.002
17	17450	12.716364163347	1.002
17	17612	12.766364163347	1.002
17	17775	12.816364163347	1.002
17	17922	12.866364163347	1.002
17	18085	12.916364163347	1.002
17	18270	12.966364163347	1.002
17	18435	13.016364163347	1.002
17	18657	13.066364163347	1.002
17	18822	13.116364163347	1.002
17	19033	13.166364163347	1.002
17	19198	13.216364163347	1.002
17	19421	13.266364163347	1.002
17	19586	13.316364163347	1.002
17	19792	13.366364163347	1.002
17	19957	13.416364163347	1.002
17	20168	13.466364163347	1.002
17	20333	13.516364163347	1.002
17	20555	13.566364163347	1.002
17	20720	13.616364163347	1.002
17	20931	13.666364163347	1.002
17	21096	13.716364163347	1.002
17	21307	13.766364163347	1.002
17	21472	13.816364163347	1.002
17	21695	13.866364163347	1.002
17	21860	13.916364163347	1.002
17	22082	13.966364163347	1.002
17	22247	14.016364163347	1.002
17	22458	14.066364163347	1.002
17	22623	14.116364163347	1.002
17	22834	14.166364163347	1.002
17	22999	14.216364163347	1.002
17	23205	14.266364163347	1.002
17	23370	14.316364163347	1.002
17	23592	14.366364163347	1.002
17	23757	14.416364163347	1.002
17	23995	14.466364163347	1.002
17	24160	14.516364163347	1.002
17	24371	14.566364163347	1.002
17	24536	14.616364163347	1.002
17	24758	14.666364163347	1.002
17	24923	14.716364163347	1.002
17	25145	14.766364163347	1.002
17	25310	14.816364163347	1.002
17	25532	14.866364163347	1.002
17	25697	14.916364163347	1.002
17	25919	14.966364163347	1.002
17	26084	15.016364163347	1.002
17	26295	15.066364163347	1.002
17	26460	15.116364163347	1.002
17	26698	15.166364163347	1.002
17	26863	15.216364163347	1.002
17	27085	15.266364163347	1.002
17	27250	15.316364163347	1.002
17	27456	15.366364163347	1.002
17	27621	15.416364163347	1.002
17	27827	15.466364163347	1.002
17	27992	15.516364163347	1.002
17	28214	15.566364163347	1.002
17	28379	15.616364163347	1.002
17	28601	15.666364163347	1.002
17	28766	15.716364163347	1.002
17	28988	15.766364163347	1.002
17	29153	15.816364163347	1.002
17	29375	15.866364163347	1.002
17	29540	15.916364163347	1.002
17	29762	15.966364163347	1.002
17	29927	16.016364163347	1.002
17	30133	16.066364163347	1.002
17	30298	16.116364163347	1.002
17	30520	16.166364163347	1.002
17	30685	16.216364163347	1.002
17	30891	16.266364163347	1.002
17	31056	16.316364163347	1.002
17	31278	16.366364163347	1.002
17	31443	16.416364163347	1.002
17	31665	16.466364163347	1.002
17	31830	16.516364163347	1.002
17	32052	16.566364163347	1.002
17	32217	16.616364163347	1.002
17	32428	16.666364163347	1.002
17	32593	16.716364163347	1.002
17	32804	16.766364163347	1.002
17	32969	16.816364163347	1.002
17	33191	16.866364163347	1.002
17	33356	16.916364163347	1.002
17	33578	16.966364163347	1.002
17	33743	17.016364163347	1.002
17	33965	17.066364163347	1.002
17	34130	17.116364163347	1.002
17	34352	17.166364163347	1.002
17	34517	17.216364163347	1.002
17	34739	17.266364163347	1.002
17	34904	17.316364163347	1.002
17	35126	17.366364163347	1.002
17	35291	17.416364163347	1.002
17	35513	17.466364163347	1.002
17	35678	17.516364163347	1.002
17	35900	17.566364163347	1.002
17	36065	17.616364163347	1.002
17	36287	17.666364163347	1.002
17	36452	17.716364163347	1.002
17	36690	17.766364163347	1.002
17	36855	17.816364163347	1.002
17	37077	17.866364163347	1.002
17	37242	17.916364163347	1.002
17	37480	17.966364163347	1.002
17	37645	18.016364163347	1.002
17	37851	18.066364163347	1.002
17	38016	18.116364163347	1.002
17	38222	18.166364163347	1.002
17	38387	18.216364163347	1.002
17	38593	18.266364163347	1.002
17	38758	18.316364163347	1.002
17	38980	18.366364163347	1.002
17	39145	18.416364163347	1.002
17	39351	18.466364163347	1.002
17	39516	18.516364163347	1.002
17	39727	18.566364163347	1.002
17	39892	18.616364163347	1.002
17	40114	18.666364163347	1.002
17	40279	18.716364163347	1.002
17	40501	18.766364163347	1.002
17	40666	18.816364163347	1.002
17	40888	18.866364163347	1.002
17	41053	18.916364163347	1.002
17	41275	18.966364163347	1.002
17	41440	19.016364163347	1.002
17	41662	19.066364163347	1.002
17	41827	19.116364163347	1.002
17	42049	19.166364163347	1.002
17	42214	19.216364163347	1.002
17	42436	19.266364163347	1.002
17	42601	19.316364163347	1.002
17	42823	19.366364163347	1.002
17	42988	19.416364163347	1.002
17	43210	19.466364163347	1.002
17	43375	19.516364163347	1.002
17	43586	19.566364163347	1.002
17	43751	19.616364163347	1.002
17	43973	19.666364163347	1.002
17	44138	19.716364163347	1.002
17	44360	19.766364163347	1.002
17	44525	19.816364163347	1.002
17	44747	19.866364163347	1.002
17	44912	19.916364163347	1.002
17	45123	19.966364163347	1.002
17	45288	20.016364163347	1.002
17	45510	20.066364163347	1.002
17	45675	20.116364163347	1.002
17	45897	20.166364163347	1.002
17	46062	20.216364163347	1.002
17	46284	20.266364163347	1.002
17	46449	20.316364163347	1.002
17	46671	20.366364163347	1.002
17	46836	20.416364163347	1.002
17	47058	20.466364163347	1.002
17	47223	20.516364163347	1.002
17	47429	20.566364163347	1.002
17	47594	20.616364163347	1.002
17	47816	20.666364163347	1.002
17	47981	20.716364163347	1.002
17	48203	20.766364163347	1.002
17	48368	20.816364163347	1.002
17	48590	20.866364163347	1.002
17	48755	20.916364163347	1.002
17	48977	20.966364163347	1.002
17	49142	21.016364163347	1.002
17	49364	21.066364163347	1.002
17	49529	21.116364163347	1.002
17	49740	21.166364163347	1.002
17	49905	21.216364163347	1.002
17	50111	21.266364163347	1.002
17	50276	21.316364163347	1.002
17	50498	21.366364163347	1.002
17	50663	21.416364163347	1.002
17	50874	21.466364163347	1.002
17	51039	21.516364163347	1.002
17	51261	21.566364163347	1.002
17	51426	21.616364163347	1.002
17	51637	21.666364163347	1.002
17	51802	21.716364163347	1.002
17	52013	21.766364163347	1.002
17	52178	21.816364163347	1.002
17	52389	21.866364163347	1.002
17	52554	21.916364163347	1.002
17	52776	21.966364163347	1.002
17	52941	22.016364163347	1.002
17	53163	22.066364163347	1.002
17	53328	22.116364163347	1.002
17	53566	22.166364163347	1.002
17	53731	22.216364163347	1.002
17	53953	22.266364163347	1.002
17	54118	22.316364163347	1.002
17	54356	22.366364163347	1.002
17	54521	22.416364163347	1.002
17	54743	22.466364163347	1.002
17	54908	22.516364163347	1.002
17	55108	22.566364163347	1.002
17	55273	22.616364163347	1.002
17	55484	22.666364163347	1.002
17	55649	22.716364163347	1.002
17	55871	22.766364163347	1.002
17	56036	22.816364163347	1.002
17	56258	22.866364163347	1.002
17	56423	22.916364163347	1.002
17	56645	22.966364163347	1.002
17	56810	23.016364163347	1.002
17	57032	23.066364163347	1.002
17	57197	23.116364163347	1.002
17	57419	23.166364163347	1.002
17	57584	23.216364163347	1.002
17	57795	23.266364163347	1.002
17	57960	23.316364163347	1.002
17	58198	23.366364163347	1.002
17	58363	23.416364163347	1.002
17	58585	23.466364163347	1.002
17	58750	23.516364163347	1.002
17	58956	23.566364163347	1.002
17	59121	23.616364163347	1.002
17	59343	23.666364163347	1.002
17	59508	23.716364163347	1.002
17	59714	23.766364163347	1.002
17	59879	23.816364163347	1.002
17	60101	23.866364163347	1.002
17	60266	23.916364163347	1.002
17	60488	23.966364163347	1.002
17	60653	24.016364163347	1.002
17	60875	24.066364163347	1.002
17	61040	24.116364163347	1.002
17	61262	24.166364163347	1.002
17	61427	24.216364163347	1.002
17	61633	24.266364163347	1.002
17	61798	24.316364163347	1.002
17	62020	24.366364163347	1.002
17	62185	24.416364163347	1.002
17	62407	24.466364163347	1.002
17	62572	24.516364163347	1.002
17	62794	24.566364163347	1.002
17	62959	24.616364163347	1.002
17	63165	24.666364163347	1.002
17	63330	24.716364163347	1.002
17	63552	24.766364163347	1.002
17	63717	24.816364163347	1.002
17	63955	24.866364163347	1.002
17	64120	24.916364163347	1.002
17	64342	24.966364163347	1.002
17	64507	25.016364163347	1.002
17	64729	25.066364163347	1.002
17	64894	25.116364163347	1.002
17	65132	25.166364163347	1.002
17	65297	25.216364163347	1.002
17	65535	25.266364163347	1.002
17	65700	25.316364163347	1.002
17	65938	25.366364163347	1.002
17	66103	25.416364163347	1.002
17	66314	25.466364163347	1.002
17	66479	25.516364163347	1.002
17	66701	25.566364163347	1.002
17	66866	25.616364163347	1.002
17	67088	25.666364163347	1.002
17	67253	25.716364163347	1.002
17	67475	25.766364163347	1.002
17	67640	25.816364163347	1.002
17	67862	25.866364163347	1.002
17	68027	25.916364163347	1.002
17	68249	25.966364163347	1.002
17	68414	26.016364163347	1.002
17	68625	26.066364163347	1.002
17	68790	26.116364163347	1.002
17	69012	26.166364163347	1.002
17	69177	26.216364163347	1.002
17	69399	26.266364163347	1.002
17	69564	26.316364163347	1.002
17	69786	26.366364163347	1.002
17	69951	26.416364163347	1.002
17	70162	26.466364163347	1.002
17	70327	26.516364163347	1.002
17	70549	26.566364163347	1.002
17	70714	26.616364163347	1.002
17	70936	26.666364163347	1.002
17	71101	26.716364163347	1.002
17	71312	26.766364163347	1.002
17	71477	26.816364163347	1.002
17	71699	26.866364163347	1.002
17	71864	26.916364163347	1.002
17	72102	26.966364163347	1.002
17	72267	27.016364163347	1.002
17	72489	27.066364163347	1.002
17	72654	27.116364163347	1.002
17	72876	27.166364163347	1.002
17	73041	27.216364163347	1.002
17	73263	27.266364163347	1.002
17	73428	27.316364163347	1.002
17	73639	27.366364163347	1.002
17	73804	27.416364163347	1.002
17	74042	27.466364163347	1.002
17	74207	27.516364163347	1.002
17	74429	27.566364163347	1.002
17	74594	27.616364163347	1.002
17	74805	27.666364163347	1.002
17	74970	27.716364163347	1.002
17	75176	27.766364163347	1.002
17	75341	27.816364163347	1.002
17	75563	27.866364163347	1.002
17	75728	27.916364163347	1.002
17	75966	27.966364163347	1.002
17	76131	28.016364163347	1.002
17	76353	28.066364163347	1.002
17	76518	28.116364163347	1.002
17	76740	28.166364163347	1.002
17	76905	28.216364163347	1.002
17	77127	28.266364163347	1.002
17	77292	28.316364163347	1.002
17	77514	28.366364163347	1.002
17	77679	28.416364163347	1.002
17	77885	28.466364163347	1.002
17	78050	28.516364163347	1.002
17	78256	28.566364163347	1.002
17	78421	28.616364163347	1.002
17	78659	28.666364163347	1.002
17	78824	28.716364163347	1.002
17	79024	28.766364163347	1.002
17	79189	28.816364163347	1.002
17	79411	28.866364163347	1.002
17	79576	28.916364163347	1.002
17	79782	28.966364163347	1.002
17	79947	29.016364163347	1.002
17	80169	29.066364163347	1.002
17	80334	29.116364163347	1.002
17	80556	29.166364163347	1.002
17	80721	29.216364163347	1.002
17	80943	29.266364163347	1.002
17	81108	29.316364163347	1.002
17	81330	29.366364163347	1.002
17	81495	29.416364163347	1.002
17	81717	29.466364163347	1.002
17	81882	29.516364163347	1.002
17	82088	29.566364163347	1.002
17	82253	29.616364163347	1.002
17	82475	29.666364163347	1.002
17	82640	29.716364163347	1.002
17	82862	29.766364163347	1.002
17	83027	29.816364163347	1.002
17	83249	29.866364163347	1.002
17	83414	29.916364163347	1.002
17	83636	29.966364163347	1.002
17	83801	30.016364163347	1.002
17	84039	30.066364163347	1.002
17	84204	30.116364163347	1.002
17	84415	30.166364163347	1.002
17	84580	30.216364163347	1.002
17	84786	30.266364163347	1.002
17	84951	30.316364163347	1.002
17	85162	30.366364163347	1.002
17	85327	30.416364163347	1.002
17	85549	30.466364163347	1.002
17	85714	30.516364163347	1.002
17	85936	30.566364163347	1.002
17	86101	30.616364163347	1.002
17	86323	30.666364163347	1.002
17	86488	30.716364163347	1.002
17	86710	30.766364163347	1.002
17	86875	30.816364163347	1.002
17	87097	30.866364163347	1.002
17	87262	30.916364163347	1.002
17	87484	30.966364163347	1.002
17	87649	31.016364163347	1.002
17	87871	31.066364163347	1.002
17	88036	31.116364163347	1.002
17	88242	31.166364163347	1.002
17	88407	31.216364163347	1.002
17	88618	31.266364163347	1.002
17	88783	31.316364163347	1.002
17	88989	31.366364163347	1.002
17	89154	31.416364163347	1.002
17	89376	31.466364163347	1.002
17	89541	31.516364163347	1.002
17	89763	31.566364163347	1.002
17	89928	31.616364163347	1.002
17	90150	31.666364163347	1.002
17	90315	31.716364163347	1.002
17	90537	31.766364163347	1.002
17	90702	31.816364163347	1.002
17	90902	31.866364163347	1.002
17	91067	31.916364163347	1.002
17	91289	31.966364163347	1.002
17	91454	32.016364163347	1.002
17	91692	32.066364163347	1.002
17	91857	32.116364163347	1.002
17	92068	32.166364163347	1.002
17	92233	32.216364163347	1.002
17	92455	32.266364163347	1.002
17	92620	32.316364163347	1.002
17	92842	32.366364163347	1.002
17	93007	32.416364163347	1.002
17	93213	32.466364163347	1.002
17	93378	32.516364163347	1.002
17	93616	32.566364163347	1.002
17	93781	32.616364163347	1.002
17	94003	32.666364163347	1.002
17	94168	32.716364163347	1.002
17	94406	32.766364163347	1.002
17	94571	32.816364163347	1.002
17	94777	32.866364163347	1.002
17	94942	32.916364163347	1.002
17	95180	32.966364163347	1.002
17	95345	33.016364163347	1.002
17	95567	33.066364163347	1.002
17	95732	33.116364163347	1.002
17	95970	33.166364163347	1.002
17	96135	33.216364163347	1.002
17	96357	33.266364163347	1.002
17	96522	33.316364163347	1.002
17	96728	33.366364163347	1.002
17	96893	33.416364163347	1.002
17	97099	33.466364163347	1.002
17	97264	33.516364163347	1.002
17	97475	33.566364163347	1.002
17	97640	33.616364163347	1.002
17	97862	33.666364163347	1.002
17	98027	33.716364163347	1.002
17	98249	33.766364163347	1.002
17	98414	33.816364163347	1.002
17	98625	33.866364163347	1.002
17	98790	33.916364163347	1.002
17	99001	33.966364163347	1.002
17	99166	34.016364163347	1.002
17	99388	34.066364163347	1.002
17	99553	34.116364163347	1.002
17	99775	34.166364163347	1.002
17	99940	34.216364163347	1.002
17	100178	34.266364163347	1.002
17	100343	34.316364163347	1.002
17	100549	34.366364163347	1.002
17	100714	34.416364163347	1.002
17	100936	34.466364163347	1.002
17	101101	34.516364163347	1.002
17	101307	34.566364163347	1.002
17	101472	34.616364163347	1.002
17	101694	34.666364163347	1.002
17	101859	34.716364163347	1.002
17	102065	34.766364163347	1.002
17	102230	34.816364163347	1.002
17	102441	34.866364163347	1.002
17	102606	34.916364163347	1.002
17	102828	34.966364163347	1.002
17	102993	35.016364163347	1.002
17	103199	35.066364163347	1.002
17	103364	35.116364163347	1.002
17	103570	35.166364163347	1.002
17	103735	35.216364163347	1.002
17	103941	35.266364163347	1.002
17	104106	35.316364163347	1.002
17	104328	35.366364163347	1.002
17	104493	35.416364163347	1.002
17	104715	35.466364163347	1.002
17	104880	35.516364163347	1.002
17	105102	35.566364163347	1.002
17	105267	35.616364163347	1.002
17	105478	35.666364163347	1.002
17	105643	35.716364163347	1.002
17	105854	35.766364163347	1.002
17	106019	35.816364163347	1.002
17	106241	35.866364163347	1.002
17	106406	35.916364163347	1.002
17	106617	35.966364163347	1.002
17	106782	36.016364163347	1.002
17	107004	36.066364163347	1.002
17	107169	36.116364163347	1.002
17	107391	36.166364163347	1.002
17	107556	36.216364163347	1.002
17	107778	36.266364163347	1.002
17	107943	36.316364163347	1.002
17	108149	36.366364163347	1.002
17	108314	36.416364163347	1.002
17	108536	36.466364163347	1.002
17	108701	36.516364163347	1.002
17	108923	36.566364163347	1.002
17	109088	36.616364163347	1.002
17	109294	36.666364163347	1.002
17	109459	36.716364163347	1.002
17	109670	36.766364163347	1.002
17	109835	36.816364163347	1.002
17	110057	36.866364163347	1.002
17	110222	36.916364163347	1.002
17	110444	36.966364163347	1.002
17	110609	37.016364163347	1.002
17	110831	37.066364163347	1.002
17	110996	37.116364163347	1.002
17	111218	37.166364163347	1.002
17	111383	37.216364163347	1.002
17	111605	37.266364163347	1.002
17	111770	37.316364163347	1.002
17	111992	37.366364163347	1.002
17	112157	37.416364163347	1.002
17	112379	37.466364163347	1.002
17	112544	37.516364163347	1.002
17	112766	37.566364163347	1.002
17	112931	37.616364163347	1.002
17	113153	37.666364163347	1.002
17	113318	37.716364163347	1.002
17	113524	37.766364163347	1.002
17	113689	37.816364163347	1.002
17	113911	37.866364163347	1.002
17	114076	37.916364163347	1.002
17	114282	37.966364163347	1.002
17	114447	38.016364163347	1.002
17	114685	38.066364163347	1.002
17	114850	38.116364163347	1.002
17	115088	38.166364163347	1.002
17	115253	38.216364163347	1.002
17	115464	38.266364163347	1.002
17	115629	38.316364163347	1.002
17	115851	38.366364163347	1.002
17	116016	38.416364163347	1.002
17	116222	38.466364163347	1.002
17	116387	38.516364163347	1.002
17	116593	38.566364163347	1.002
17	116758	38.616364163347	1.002
17	116996	38.666364163347	1.002
17	117161	38.716364163347	1.002
17	117383	38.766364163347	1.002
17	117548	38.816364163347	1.002
17	117770	38.866364163347	1.002
17	117935	38.916364163347	1.002
17	118157	38.966364163347	1.002
17	118322	39.016364163347	1.002
17	118544	39.066364163347	1.002
17	118709	39.116364163347	1.002
17	118920	39.166364163347	1.002
17	119085	39.216364163347	1.002
17	119307	39.266364163347	1.002
17	119472	39.316364163347	1.002
17	119683	39.366364163347	1.002
17	119848	39.416364163347	1.002
17	120054	39.466364163347	1.002
17	120219	39.516364163347	1.002
17	120430	39.566364163347	1.002
17	120595	39.616364163347	1.002
17	120833	39.666364163347	1.002
17	120998	39.716364163347	1.002
17	121236	39.766364163347	1.002
17	121401	39.816364163347	1.002
17	121639	39.866364163347	1.002
17	121804	39.916364163347	1.002
17	122042	39.966364163347	1.002
17	122207	40.016364163347	1.002
17	122429	40.066364163347	1.002
17	122594	40.116364163347	1.002
17	122805	40.166364163347	1.002
17	122970	40.216364163347	1.002
17	123192	40.266364163347	1.002
17	123357	40.316364163347	1.002
17	123579	40.366364163347	1.002
17	123744	40.416364163347	1.002
17	123950	40.466364163347	1.002
17	124115	40.516364163347	1.002
17	124337	40.566364163347	1.002
17	124502	40.616364163347	1.002
17	124724	40.666364163347	1.002
17	124889	40.716364163347	1.002
17	125127	40.766364163347	1.002
17	125292	40.816364163347	1.002
17	125503	40.866364163347	1.002
17	125668	40.916364163347	1.002
17	125874	40.966364163347	1.002
17	126039	41.016364163347	1.002
17	126261	41.066364163347	1.002
17	126426	41.116364163347	1.002
17	126632	41.166364163347	1.002
17	126797	41.216364163347	1.002
17	127008	41.266364163347	1.002
17	127173	41.316364163347	1.002
17	127395	41.366364163347	1.002
17	127560	41.416364163347	1.002
17	127771	41.466364163347	1.002
17	127936	41.516364163347	1.002
17	128158	41.566364163347	1.002
17	128323	41.616364163347	1.002
17	128561	41.666364163347	1.002
17	128726	41.716364163347	1.002
17	128948	41.766364163347	1.002
17	129113	41.816364163347	1.002
17	129335	41.866364163347	1.002
17	129500	41.916364163347	1.002
17	129722	41.966364163347	1.002
17	129887	42.016364163347	1.002
17	130109	42.066364163347	1.002
17	130274	42.116364163347	1.002
17	130496	42.166364163347	1.002
17	130661	42.216364163347	1.002
17	130883	42.266364163347	1.002
17	131048	42.316364163347	1.002
17	131286	42.366364163347	1.002
17	131451	42.416364163347	1.002
17	131673	42.466364163347	1.002
17	131838	42.516364163347	1.002
17	132076	42.566364163347	1.002
17	132241	42.616364163347	1.002
17	132452	42.666364163347	1.002
17	132617	42.716364163347	1.002
17	132839	42.766364163347	1.002
17	133004	42.816364163347	1.002
17	133226	42.866364163347	1.002
17	133391	42.916364163347	1.002
17	133613	42.966364163347	1.002
17	133778	43.016364163347	1.002
17	134000	43.066364163347	1.002
17	134165	43.116364163347	1.002
17	134376	43.166364163347	1.002
17	134541	43.216364163347	1.002
17	134763	43.266364163347	1.002
17	134928	43.316364163347	1.002
17	135134	43.366364163347	1.002
17	135299	43.416364163347	1.002
17	135521	43.466364163347	1.002
17	135686	43.516364163347	1.002
17	135908	43.566364163347	1.002
17	136073	43.616364163347	1.002
17	136295	43.666364163347	1.002
17	136460	43.716364163347	1.002
17	136698	43.766364163347	1.002
17	136863	43.816364163347	1.002
17	137085	43.866364163347	1.002
17	137250	43.916364163347	1.002
17	137461	43.966364163347	1.002
17	137626	44.016364163347	1.002
17	137826	44.066364163347	1.002
17	137991	44.116364163347	1.002
17	138229	44.166364163347	1.002
17	138394	44.216364163347	1.002
17	138632	44.266364163347	1.002
17	138797	44.316364163347	1.002
17	139003	44.366364163347	1.002
17	139168	44.416364163347	1.002
17	139379	44.466364163347	1.002
17	139544	44.516364163347	1.002
17	139766	44.566364163347	1.002
17	139931	44.616364163347	1.002
17	140153	44.666364163347	1.002
17	140318	44.716364163347	1.002
17	140529	44.766364163347	1.002
17	140694	44.816364163347	1.002
17	140916	44.866364163347	1.002
17	141081	44.916364163347	1.002
17	141303	44.966364163347	1.002
17	141468	45.016364163347	1.002
17	141690	45.066364163347	1.002
17	141855	45.116364163347	1.002
17	142077	45.166364163347	1.002
17	142242	45.216364163347	1.002
17	142453	45.266364163347	1.002
17	142618	45.316364163347	1.002
17	142824	45.366364163347	1.002
17	142989	45.416364163347	1.002
17	143227	45.466364163347	1.002
17	143392	45.516364163347	1.002
17	143614	45.566364163347	1.002
17	143779	45.616364163347	1.002
17	144001	45.666364163347	1.002
17	144166	45.716364163347	1.002
17	144388	45.766364163347	1.002
17	144553	45.816364163347	1.002
17	144764	45.866364163347	1.002
17	144929	45.916364163347	1.002
17	145151	45.966364163347	1.002
17	145316	46.016364163347	1.002
17	145538	46.066364163347	1.002
17	145703	46.116364163347	1.002
17	145925	46.166364163347	1.002
17	146090	46.216364163347	1.002
17	146312	46.266364163347	1.002
17	146477	46.316364163347	1.002
17	146715	46.366364163347	1.002
17	146880	46.416364163347	1.002
17	147102	46.466364163347	1.002
17	147267	46.516364163347	1.002
17	147478	46.566364163347	1.002
17	147643	46.616364163347	1.002
17	147865	46.666364163347	1.002
17	148030	46.716364163347	1.002
17	148236	46.766364163347	1.002
17	148401	46.816364163347	1.002
17	148612	46.866364163347	1.002
17	148777	46.916364163347	1.002
17	148999	46.966364163347	1.002
17	149164	47.016364163347	1.002
17	149375	47.066364163347	1.002
17	149540	47.116364163347	1.002
17	149751	47.166364163347	1.002
17	149916	47.216364163347	1.002
17	150138	47.266364163347	1.002
17	150303	47.316364163347	1.002
17	150509	47.366364163347	1.002
17	150674	47.416364163347	1.002
17	150896	47.466364163347	1.002
17	151061	47.516364163347	1.002
17	151283	47.566364163347	1.002
17	151448	47.616364163347	1.002
17	151670	47.666364163347	1.002
17	151835	47.716364163347	1.002
17	152057	47.766364163347	1.002
17	152222	47.816364163347	1.002
17	152428	47.866364163347	1.002
17	152593	47.916364163347	1.002
17	152815	47.966364163347	1.002
17	152980	48.016364163347	1.002
17	153186	48.066364163347	1.002
17	153351	48.116364163347	1.002
17	153573	48.166364163347	1.002
17	153738	48.216364163347	1.002
17	153976	48.266364163347	1.002
17	154141	48.316364163347	1.002
17	154363	48.366364163347	1.002
17	154528	48.416364163347	1.002
17	154750	48.466364163347	1.002
17	154915	48.516364163347	1.002
17	155137	48.566364163347	1.002
17	155302	48.616364163347	1.002
17	155524	48.666364163347	1.002
17	155689	48.716364163347	1.002
17	155911	48.766364163347	1.002
17	156076	48.816364163347	1.002
17	156287	48.866364163347	1.002
17	156452	48.916364163347	1.002
17	156663	48.966364163347	1.002
17	156828	49.016364163347	1.002
17	157050	49.066364163347	1.002
17	157215	49.116364163347	1.002
17	157426	49.166364163347	1.002
17	157591	49.216364163347	1.002
17	157802	49.266364163347	1.002
17	157967	49.316364163347	1.002
17	158173	49.366364163347	1.002
17	158338	49.416364163347	1.002
17	158576	49.466364163347	1.002
17	158741	49.516364163347	1.002
17	158963	49.566364163347	1.002
17	159128	49.616364163347	1.002
17	159334	49.666364163347	1.002
17	159499	49.716364163347	1.002
17	159721	49.766364163347	1.002
17	159886	49.816364163347	1.002
17	160092	49.866364163347	1.002
17	160257	49.916364163347	1.002
17	160468	49.966364163347	1.002
17	160633	50.016364163347	1.002
17	160839	50.066364163347	1.002
17	161004	50.116364163347	1.002
17	161210	50.166364163347	1.002
17	161375	50.216364163347	1.002
17	161597	50.266364163347	1.002
17	161762	50.316364163347	1.002
17	161984	50.366364163347	1.002
17	162149	50.416364163347	1.002
17	162371	50.466364163347	1.002
17	162536	50.516364163347	1.002
17	162758	50.566364163347	1.002
17	162923	50.616364163347	1.002
17	163134	50.666364163347	1.002
17	163299	50.716364163347	1.002
17	163521	50.766364163347	1.002
17	163686	50.816364163347	1.002
17	163886	50.866364163347	1.002
17	164051	50.916364163347	1.002
17	164273	50.966364163347	1.002
17	164438	51.016364163347	1.002
17	164660	51.066364163347	1.002
17	164825	51.116364163347	1.002
17	165036	51.166364163347	1.002
17	165201	51.216364163347	1.002
17	165423	51.266364163347	1.002
17	165588	51.316364163347	1.002
17	165799	51.366364163347	1.002
17	165964	51.416364163347	1.002
17	166170	51.466364163347	1.002
17	166335	51.516364163347	1.002
17	166546	51.566364163347	1.002
17	166711	51.616364163347	1.002
17	166922	51.666364163347	1.002
17	167087	51.716364163347	1.002
17	167325	51.766364163347	1.002
17	167490	51.816364163347	1.002
17	167728	51.866364163347	1.002
17	167893	51.916364163347	1.002
17	168115	51.966364163347	1.002
17	168280	52.016364163347	1.002
17	168502	52.066364163347	1.002
17	168667	52.116364163347	1.002
17	168889	52.166364163347	1.002
17	169054	52.216364163347	1.002
17	169276	52.266364163347	1.002
17	169441	52.316364163347	1.002
17	169652	52.366364163347	1.002
17	169817	52.416364163347	1.002
17	170055	52.466364163347	1.002
17	170220	52.516364163347	1.002
17	170442	52.566364163347	1.002
17	170607	52.616364163347	1.002
17	170829	52.666364163347	1.002
17	170994	52.716364163347	1.002
17	171205	52.766364163347	1.002
17	171370	52.816364163347	1.002
17	171592	52.866364163347	1.002
17	171757	52.916364163347	1.002
17	171968	52.966364163347	1.002
17	172133	53.016364163347	1.002
17	172355	53.066364163347	1.002
17	172520	53.116364163347	1.002
17	172742	53.166364163347	1.002
17	172907	53.216364163347	1.002
17	173129	53.266364163347	1.002
17	173294	53.316364163347	1.002
17	173532	53.366364163347	1.002
17	173697	53.416364163347	1.002
17	173919	53.466364163347	1.002
17	174084	53.516364163347	1.002
17	174306	53.566364163347	1.002
17	174471	53.616364163347	1.002
17	174693	53.666364163347	1.002
17	174858	53.716364163347	1.002
17	175096	53.766364163347	1.002
17	175261	53.816364163347	1.002
17	175483	53.866364163347	1.002
17	175648	53.916364163347	1.002
17	175886	53.966364163347	1.002
17	176051	54.016364163347	1.002
17	176257	54.066364163347	1.002
17	176422	54.116364163347	1.002
17	176644	54.166364163347	1.002
17	176809	54.216364163347	1.002
17	177047	54.266364163347	1.002
17	177212	54.316364163347	1.002
17	177434	54.366364163347	1.002
17	177599	54.416364163347	1.002
17	177821	54.466364163347	1.002
17	177986	54.516364163347	1.002
17	178192	54.566364163347	1.002
17	178357	54.616364163347	1.002
17	178568	54.666364163347	1.002
17	178733	54.716364163347	1.002
17	178955	54.766364163347	1.002
17	179120	54.816364163347	1.002
17	179342	54.866364163347	1.002
17	179507	54.916364163347	1.002
17	179713	54.966364163347	1.002
17	179878	55.016364163347	1.002
17	180100	55.066364163347	1.002
17	180265	55.116364163347	1.002
17	180487	55.166364163347	1.002
17	180652	55.216364163347	1.002
17	180858	55.266364163347	1.002
17	181023	55.316364163347	1.002
17	181245	55.366364163347	1.002
17	181410	55.416364163347	1.002
17	181616	55.466364163347	1.002
17	181781	55.516364163347	1.002
17	182003	55.566364163347	1.002
17	182168	55.616364163347	1.002
17	182390	55.666364163347	1.002
17	182555	55.716364163347	1.002
17	182777	55.766364163347	1.002
17	182942	55.816364163347	1.002
17	183180	55.866364163347	1.002
17	183345	55.916364163347	1.002
17	183567	55.966364163347	1.002
17	183732	56.016364163347	1.002
17	183970	56.066364163347	1.002
17	184135	56.116364163347	1.002
17	184357	56.166364163347	1.002
17	184522	56.216364163347	1.002
17	184728	56.266364163347	1.002
17	184893	56.316364163347	1.002
17	185099	56.366364163347	1.002
17	185264	56.416364163347	1.002
17	185475	56.466364163347	1.002
17	185640	56.516364163347	1.002
17	185862	56.566364163347	1.002
17	186027	56.616364163347	1.002
17	186238	56.666364163347	1.002
17	186403	56.716364163347	1.002
17	186625	56.766364163347	1.002
17	186790	56.816364163347	1.002
17	187012	56.866364163347	1.002
17	187177	56.916364163347	1.002
17	187388	56.966364163347	1.002
17	187553	57.016364163347	1.002
17	187775	57.066364163347	1.002
17	187940	57.116364163347	1.002
17	188162	57.166364163347	1.002
17	188327	57.216364163347	1.002
17	188549	57.266364163347	1.002
17	188714	57.316364163347	1.002
17	188920	57.366364163347	1.002
17	189085	57.416364163347	1.002
17	189323	57.466364163347	1.002
17	189488	57.516364163347	1.002
17	189710	57.566364163347	1.002
17	189875	57.616364163347	1.002
17	190097	57.666364163347	1.002
17	190262	57.716364163347	1.002
17	190484	57.766364163347	1.002
17	190649	57.816364163347	1.002
17	190871	57.866364163347	1.002
17	191036	57.916364163347	1.002
17	191247	57.966364163347	1.002
17	191412	58.016364163347	1.002
17	191650	58.066364163347	1.002
17	191815	58.116364163347	1.002
17	192037	58.166364163347	1.002
17	192202	58.216364163347	1.002
17	192413	58.266364163347	1.002
17	192578	58.316364163347	1.002
17	192784	58.366364163347	1.002
17	192949	58.416364163347	1.002
17	193155	58.466364163347	1.002
17	193320	58.516364163347	1.002
17	193542	58.566364163347	1.002
17	193707	58.616364163347	1.002
17	193945	58.666364163347	1.002
17	194110	58.716364163347	1.002
17	194348	58.766364163347	1.002
17	194513	58.816364163347	1.002
17	194735	58.866364163347	1.002
17	194900	58.916364163347	1.002
17	195106	58.966364163347	1.002
17	195271	59.016364163347	1.002
17	195493	59.066364163347	1.002
17	195658	59.116364163347	1.002
17	195864	59.166364163347	1.002
17	196029	59.216364163347	1.002
17	196251	59.266364163347	1.002
17	196416	59.316364163347	1.002
17	196654	59.366364163347	1.002
17	196819	59.416364163347	1.002
17	197030	59.466364163347	1.002
17	197195	59.516364163347	1.002
17	197406	59.566364163347	1.002
17	197571	59.616364163347	1.002
17	197793	59.666364163347	1.002
17	197958	59.716364163347	1.002
17	198164	59.766364163347	1.002
17	198329	59.816364163347	1.002
17	198551	59.866364163347	1.002
17	198716	59.916364163347	1.002
17	198954	59.966364163347	1.002
17	199119	60.016364163347	1.002
17	199341	60.066364163347	1.002
17	199506	60.116364163347	1.002
17	199728	60.166364163347	1.002
17	199893	60.216364163347	1.002
17	200099	60.266364163347	1.002
17	200264	60.316364163347	1.002
17	200475	60.366364163347	1.002
17	200640	60.416364163347	1.002
17	200851	60.466364163347	1.002
17	201016	60.516364163347	1.002
17	201238	60.566364163347	1.002
17	201403	60.616364163347	1.002
17	201625	60.666364163347	1.002
17	201790	60.716364163347	1.002
17	202012	60.766364163347	1.002
17	202177	60.816364163347	1.002
17	202399	60.866364163347	1.002
17	202564	60.916364163347	1.002
17	202786	60.966364163347	1.002
17	202951	61.016364163347	1.002
17	203173	61.066364163347	1.002
17	203338	61.116364163347	1.002
17	203549	61.166364163347	1.002
17	203714	61.216364163347	1.002
17	203936	61.266364163347	1.002
17	204101	61.316364163347	1.002
17	204312	61.366364163347	1.002
17	204477	61.416364163347	1.002
17	204699	61.466364163347	1.002
17	204864	61.516364163347	1.002
17	205102	61.566364163347	1.002
16	17	0.366364163347	1
16	35	0.416364163347	2
16	52	0.466364163347	3
16	70	0.516364163347	4
16	87	0.566364163347	5
16	105	0.616364163347	6
16	122	0.666364163347	7
16	140	0.716364163347	8
16	157	0.766364163347	9
16	175	0.816364163347	10
16	192	0.866364163347	11
16	210	0.916364163347	12
16	227	0.966364163347	13
16	245	1.016364163347	14
16	262	1.066364163347	15
16	280	1.116364163347	16
16	297	1.166364163347	17
16	315	1.216364163347	18
16	332	1.266364163347	19
16	350	1.316364163347	20
16	367	1.366364163347	21
16	385	1.416364163347	22
16	402	1.466364163347	23
16	420	1.516364163347	24
16	437	1.566364163347	25
16	455	1.616364163347	26
16	472	1.666364163347	27
16	490	1.716364163347	28
16	507	1.766364163347	29
16	525	1.816364163347	30
16	542	1.866364163347	31
16	560	1.916364163347	32
16	577	1.966364163347	33
16	595	2.016364163347	34
16	612	2.066364163347	35
16	630	2.116364163347	36
16	647	2.166364163347	37
16	665	2.216364163347	38
16	682	2.266364163347	39
16	700	2.316364163347	40
16	717	2.366364163347	41
16	735	2.416364163347	42
16	752	2.466364163347	43
16	770	2.516364163347	44
16	787	2.566364163347	45
16	805	2.616364163347	46
16	822	2.666364163347	47
16	840	2.716364163347	48
16	857	2.766364163347	49
16	875	2.816364163347	50
16	892	2.866364163347	51
16	910	2.916364163347	52
16	927	2.966364163347	53
16	945	3.016364163347	54
16	962	3.066364163347	55
16	980	3.116364163347	56
16	1004	3.166364163347	57
16	1029	3.216364163347	58
16	1053	3.266364163347	59
16	1078	3.316364163347	60
16	1102	3.366364163347	61
16	1127	3.416364163347	62
16	1151	3.466364163347	63
16	1176	3.516364163347	64
16	1200	3.566364163347	65
16	1225	3.616364163347	66
16	1249	3.666364163347	67
16	1274	3.716364163347	68
16	1298	3.766364163347	69
16	1323	3.816364163347	70
16	1347	3.866364163347	71
16	1372	3.916364163347	72
16	1396	3.966364163347	73
16	1442	4.016364163347	75
16	1487	4.066364163347	77
16	1533	4.116364163347	79
16	1578	4.166364163347	81
16	1624	4.216364163347	83
16	1669	4.266364163347	85
16	1715	4.316364163347	87
16	1760	4.366364163347	89
16	1806	4.416364163347	91
16	1851	4.466364163347	93
16	1897	4.516364163347	95
16	1942	4.566364163347	97
16	1988	4.616364163347	99
16	2033	4.666364163347	101
16	2079	4.716364163347	103
16	2124	4.766364163347	105
16	2170	4.816364163347	107
16	2215	4.866364163347	109
16	2261	4.916364163347	111
16	2306	4.966364163347	113
16	2352	5.016364163347	115
16	2397	5.066364163347	117
16	2443	5.116364163347	119
16	2488	5.166364163347	121
16	2534	5.216364163347	123
16	2579	5.266364163347	125
16	2625	5.316364163347	127
16	2670	5.366364163347	129
16	2716	5.416364163347	131
16	2761	5.466364163347	133
16	2807	5.516364163347	135
16	2852	5.566364163347	137
16	2898	5.616364163347	139
16	2943	5.666364163347	141
16	2989	5.716364163347	143
16	3034	5.766364163347	145
16	3080	5.816364163347	147
16	3125	5.866364163347	149
16	3171	5.916364163347	151
16	3216	5.966364163347	153
16	3262	6.016364163347	155
16	3307	6.066364163347	157
16	3353	6.116364163347	159
16	3411	6.166364163347	161
16	3470	6.216364163347	163
16	3528	6.266364163347	165
16	3587	6.316364163347	167
16	3645	6.366364163347	169
16	3704	6.416364163347	171
16	3762	6.466364163347	173
16	3821	6.516364163347	175
16	3879	6.566364163347	177
16	3938	6.616364163347	179
16	3996	6.666364163347	181
16	4055	6.716364163347	183
16	4113	6.766364163347	185
16	4199	6.816364163347	188
16	4284	6.866364163347	191
16	4370	6.916364163347	194
16	4455	6.966364163347	197
16	4541	7.016364163347	200
16	4626	7.066364163347	203
16	4712	7.116364163347	206
16	4797	7.166364163347	209
16	4883	7.216364163347	212
16	4968	7.266364163347	215
16	5054	7.316364163347	218
16	5139	7.366364163347	221
16	5225	7.416364163347	224
16	5310	7.466364163347	227
16	5396	7.516364163347	230
16	5481	7.566364163347	233
16	5567	7.616364163347	236
16	5652	7.666364163347	239
16	5738	7.716364163347	242
16	5823	7.766364163347	245
16	5909	7.816364163347	248
16	5994	7.866364163347	251
16	6080	7.916364163347	254
16	6165	7.966364163347	257
16	6251	8.016364163347	260
16	6326	8.066364163347	263
16	6412	8.116364163347	266
16	6497	8.166364163347	269
16	6583	8.216364163347	272
16	6658	8.266364163347	275
16	6744	8.316364163347	278
16	6829	8.366364163347	281
16	6915	8.416364163347	284
16	6990	8.466364163347	287
16	7076	8.516364163347	290
16	7151	8.566364163347	293
16	7237	8.616364163347	296
16	7322	8.666364163347	299
16	7408	8.716364163347	302
16	7493	8.766364163347	305
16	7579	8.816364163347	308
16	7664	8.866364163347	311
16	7750	8.916364163347	314
16	7835	8.966364163347	317
16	7921	9.016364163347	320
16	8006	9.066364163347	323
16	8092	9.116364163347	326
16	8183	9.166364163347	329
16	8288	9.216364163347	332
16	8379	9.266364163347	335
16	8484	9.316364163347	338
16	8588	9.366364163347	341
16	8693	9.416364163347	344
16	8784	9.466364163347	347
16	8889	9.516364163347	350
16	8993	9.566364163347	353
16	9098	9.616364163347	356
16	9202	9.666364163347	359
16	9307	9.716364163347	362
16	9411	9.766364163347	365
16	9516	9.816364163347	368
16	9620	9.866364163347	371
16	9725	9.916364163347	374
16	9829	9.966364163347	377
16	9967	10.016364163347	381
16	10091	10.066364163347	385
16	10229	10.116364163347	389
16	10366	10.166364163347	393
16	10504	10.216364163347	397
16	10628	10.266364163347	401
16	10766	10.316364163347	405
16	10890	10.366364163347	409
16	11028	10.416364163347	413
16	11152	10.466364163347	417
16	11290	10.516364163347	421
16	11414	10.566364163347	425
16	11552	10.616364163347	429
16	11689	10.666364163347	433
16	11827	10.716364163347	437
16	11964	10.766364163347	441
16	12102	10.816364163347	445
16	12226	10.866364163347	449
16	12364	10.916364163347	453
16	12488	10.966364163347	457
16	12626	11.016364163347	461
16	12763	11.066364163347	465
16	12901	11.116364163347	469
16	13025	11.166364163347	473
16	13163	11.216364163347	477
16	13300	11.266364163347	481
16	13438	11.316364163347	485
16	13575	11.366364163347	489
16	13713	11.416364163347	493
16	13837	11.466364163347	497
16	13975	11.516364163347	501
16	14112	11.566364163347	505
16	14250	11.616364163347	509
16	14374	11.666364163347	513
16	14512	11.716364163347	517
16	14636	11.766364163347	521
16	14774	11.816364163347	525
16	14898	11.866364163347	529
16	15036	11.916364163347	533
16	15160	11.966364163347	537
16	15298	12.016364163347	541
16	15435	12.066364163347	545
16	15573	12.116364163347	549
16	15735	12.166364163347	553
16	15898	12.216364163347	557
16	16060	12.266364163347	561
16	16223	12.316364163347	565
16	16358	12.366364163347	569
16	16521	12.416364163347	573
16	16667	12.466364163347	577
16	16830	12.516364163347	581
16	16977	12.566364163347	585
16	17140	12.616364163347	589
16	17287	12.666364163347	593
16	17450	12.716364163347	597
16	17612	12.766364163347	601
16	17775	12.816364163347	605
16	17922	12.866364163347	609
16	18085	12.916364163347	613
16	18270	12.966364163347	618
16	18435	13.016364163347	623
16	18657	13.066364163347	628
16	18822	13.116364163347	633
16	19033	13.166364163347	638
16	19198	13.216364163347	643
16	19421	13.266364163347	648
16	19586	13.316364163347	653
16	19792	13.366364163347	658
16	19957	13.416364163347	663
16	20168	13.466364163347	668
16	20333	13.516364163347	673
16	20555	13.566364163347	678
16	20720	13.616364163347	683
16	20931	13.666364163347	688
16	21096	13.716364163347	693
16	21307	13.766364163347	698
16	21472	13.816364163347	703
16	21695	13.866364163347	708
16	21860	13.916364163347	713
16	22082	13.966364163347	718
16	22247	14.016364163347	723
16	22458	14.066364163347	728
16	22623	14.116364163347	733
16	22834	14.166364163347	738
16	22999	14.216364163347	743
16	23205	14.266364163347	748
16	23370	14.316364163347	753
16	23592	14.366364163347	758
16	23757	14.416364163347	763
16	23995	14.466364163347	768
16	24160	14.516364163347	773
16	24371	14.566364163347	778
16	24536	14.616364163347	783
16	24758	14.666364163347	788
16	24923	14.716364163347	793
16	25145	14.766364163347	798
16	25310	14.816364163347	803
16	25532	14.866364163347	808
16	25697	14.916364163347	813
16	25919	14.966364163347	818
16	26084	15.016364163347	823
16	26295	15.066364163347	828
16	26460	15.116364163347	833
16	26698	15.166364163347	838
16	26863	15.216364163347	843
16	27085	15.266364163347	848
16	27250	15.316364163347	853
16	27456	15.366364163347	858
16	27621	15.416364163347	863
16	27827	15.466364163347	868
16	27992	15.516364163347	873
16	28214	15.566364163347	878
16	28379	15.616364163347	883
16	28601	15.666364163347	888
16	28766	15.716364163347	893
16	28988	15.766364163347	898
16	29153	15.816364163347	903
16	29375	15.866364163347	908
16	29540	15.916364163347	913
16	29762	15.966364163347	918
16	29927	16.016364163347	923
16	30133	16.066364163347	928
16	30298	16.116364163347	933
16	30520	16.166364163347	938
16	30685	16.216364163347	943
16	30891	16.266364163347	948
16	31056	16.316364163347	953
16	31278	16.366364163347	958
16	31443	16.416364163347	963
16	31665	16.466364163347	968
16	31830	16.516364163347	973
16	32052	16.566364163347	978
16	32217	16.616364163347	983
16	32428	16.666364163347	988
16	32593	16.716364163347	993
16	32804	16.766364163347	998
16	32969	16.816364163347	1003
16	33191	16.866364163347	1008
16	33356	16.916364163347	1013
16	33578	16.966364163347	1018
16	33743	17.016364163347	1023
16	33965	17.066364163347	1028
16	34130	17.116364163347	1033
16	34352	17.166364163347	1038
16	34517	17.216364163347	1043
16	34739	17.266364163347	1048
16	34904	17.316364163347	1053
16	35126	17.366364163347	1058
16	35291	17.416364163347	1063
16	35513	17.466364163347	1068
16	35678	17.516364163347	1073
16	35900	17.566364163347	1078
16	36065	17.616364163347	1083
16	36287	17.666364163347	1088
16	36452	17.716364163347	1093
16	36690	17.766364163347	1098
16	36855	17.816364163347	1103
16	37077	17.866364163347	1108
16	37242	17.916364163347	1113
16	37480	17.966364163347	1118
16	37645	18.016364163347	1123
16	37851	18.066364163347	1128
16	38016	18.116364163347	1133
16	38222	18.166364163347	1138
16	38387	18.216364163347	1143
16	38593	18.266364163347	1148
16	38758	18.316364163347	1153
16	38980	18.366364163347	1158
16	39145	18.416364163347	1163
16	39351	18.466364163347	1168
16	39516	18.516364163347	1173
16	39727	18.566364163347	1178
16	39892	18.616364163347	1183
16	40114	18.666364163347	1188
16	40279	18.716364163347	1193
16	40501	18.766364163347	1198
16	40666	18.816364163347	1203
16	40888	18.866364163347	1208
16	41053	18.916364163347	1213
16	41275	18.966364163347	1218
16	41440	19.016364163347	1223
16	41662	19.066364163347	1228
16	41827	19.116364163347	1233
16	42049	19.166364163347	1238
16	42214	19.216364163347	1243
16	42436	19.266364163347	1248
16	42601	19.316364163347	1253
16	42823	19.366364163347	1258
16	42988	19.416364163347	1263
16	43210	19.466364163347	1268
16	43375	19.516364163347	1273
16	43586	19.566364163347	1278
16	43751	19.616364163347	1283
16	43973	19.666364163347	1288
16	44138	19.716364163347	1293
16	44360	19.766364163347	1298
16	44525	19.816364163347	1303
16	44747	19.866364163347	1308
16	44912	19.916364163347	1313
16	45123	19.966364163347	1318
16	45288	20.016364163347	1323
16	45510	20.066364163347	1328
16	45675	20.116364163347	1333
16	45897	20.166364163347	1338
16	46062	20.216364163347	1343
16	46284	20.266364163347	1348
16	46449	20.316364163347	1353
16	46671	20.366364163347	1358
16	46836	20.416364163347	1363
16	47058	20.466364163347	1368
16	47223	20.516364163347	1373
16	47429	20.566364163347	1378
16	47594	20.616364163347	1383
16	47816	20.666364163347	1388
16	47981	20.716364163347	1393
16	48203	20.766364163347	1398
16	48368	20.816364163347	1403
16	48590	20.866364163347	1408
16	48755	20.916364163347	1413
16	48977	20.966364163347	1418
16	49142	21.016364163347	1423
16	49364	21.066364163347	1428
16	49529	21.116364163347	1433
16	49740	21.166364163347	1438
16	49905	21.216364163347	1443
16	50111	21.266364163347	1448
16	50276	21.316364163347	1453
16	50498	21.366364163347	1458
16	50663	21.416364163347	1463
16	50874	21.466364163347	1468
16	51039	21.516364163347	1473
16	51261	21.566364163347	1478
16	51426	21.616364163347	1483
16	51637	21.666364163347	1488
16	51802	21.716364163347	1493
16	52013	21.766364163347	1498
16	52178	21.816364163347	1503
16	52389	21.866364163347	1508
16	52554	21.916364163347	1513
16	52776	21.966364163347	1518
16	52941	22.016364163347	1523
16	53163	22.066364163347	1528
16	53328	22.116364163347	1533
16	53566	22.166364163347	1538
16	53731	22.216364163347	1543
16	53953	22.266364163347	1548
16	54118	22.316364163347	1553
16	54356	22.366364163347	1558
16	54521	22.416364163347	1563
16	54743	22.466364163347	1568
16	54908	22.516364163347	1573
16	55108	22.566364163347	1578
16	55273	22.616364163347	1583
16	55484	22.666364163347	1588
16	55649	22.716364163347	1593
16	55871	22.766364163347	1598
16	56036	22.816364163347	1603
16	56258	22.866364163347	1608
16	56423	22.916364163347	1613
16	56645	22.966364163347	1618
16	56810	23.016364163347	1623
16	57032	23.066364163347	1628
16	57197	23.116364163347	1633
16	57419	23.166364163347	1638
16	57584	23.216364163347	1643
16	57795	23.266364163347	1648
16	57960	23.316364163347	1653
16	58198	23.366364163347	1658
16	58363	23.416364163347	1663
16	58585	23.466364163347	1668
16	58750	23.516364163347	1673
16	58956	23.566364163347	1678
16	59121	23.616364163347	1683
16	59343	23.666364163347	1688
16	59508	23.716364163347	1693
16	59714	23.766364163347	1698
16	59879	23.816364163347	1703
16	60101	23.866364163347	1708
16	60266	23.916364163347	1713
16	60488	23.966364163347	1718
16	60653	24.016364163347	1723
16	60875	24.066364163347	1728
16	61040	24.116364163347	1733
16	61262	24.166364163347	1738
16	61427	24.216364163347	1743
16	61633	24.266364163347	1748
16	61798	24.316364163347	1753
16	62020	24.366364163347	1758
16	62185	24.416364163347	1763
16	62407	24.466364163347	1768
16	62572	24.516364163347	1773
16	62794	24.566364163347	1778
16	62959	24.616364163347	1783
16	63165	24.666364163347	1788
16	63330	24.716364163347	1793
16	63552	24.766364163347	1798
16	63717	24.816364163347	1803
16	63955	24.866364163347	1808
16	64120	24.916364163347	1813
16	64342	24.966364163347	1818
16	64507	25.016364163347	1823
16	64729	25.066364163347	1828
16	64894	25.116364163347	1833
16	65132	25.166364163347	1838
16	65297	25.216364163347	1843
16	65535	25.266364163347	1848
16	65700	25.316364163347	1853
16	65938	25.366364163347	1858
16	66103	25.416364163347	1863
16	66314	25.466364163347	1868
16	66479	25.516364163347	1873
16	66701	25.566364163347	1878
16	66866	25.616364163347	1883
16	67088	25.666364163347	1888
16	67253	25.716364163347	1893
16	67475	25.766364163347	1898
16	67640	25.816364163347	1903
16	67862	25.866364163347	1908
16	68027	25.916364163347	1913
16	68249	25.966364163347	1918
16	68414	26.016364163347	1923
16	68625	26.066364163347	1928
16	68790	26.116364163347	1933
16	69012	26.166364163347	1938
16	69177	26.216364163347	1943
16	69399	26.266364163347	1948
16	69564	26.316364163347	1953
16	69786	26.366364163347	1958
16	69951	26.416364163347	1963
16	70162	26.466364163347	1968
16	70327	26.516364163347	1973
16	70549	26.566364163347	1978
16	70714	26.616364163347	1983
16	70936	26.666364163347	1988
16	71101	26.716364163347	1993
16	71312	26.766364163347	1998
16	71477	26.816364163347	2003
16	71699	26.866364163347	2008
16	71864	26.916364163347	2013
16	72102	26.966364163347	2018
16	72267	27.016364163347	2023
16	72489	27.066364163347	2028
16	72654	27.116364163347	2033
16	72876	27.166364163347	2038
16	73041	27.216364163347	2043
16	73263	27.266364163347	2048
16	73428	27.316364163347	2053
16	73639	27.366364163347	2058
16	73804	27.416364163347	2063
16	74042	27.466364163347	2068
16	74207	27.516364163347	2073
16	74429	27.566364163347	2078
16	74594	27.616364163347	2083
16	74805	27.666364163347	2088
16	74970	27.716364163347	2093
16	75176	27.766364163347	2098
16	75341	27.816364163347	2103
16	75563	27.866364163347	2108
16	75728	27.916364163347	2113
16	75966	27.966364163347	2118
16	76131	28.016364163347	2123
16	76353	28.066364163347	2128
16	76518	28.116364163347	2133
16	76740	28.166364163347	2138
16	76905	28.216364163347	2143
16	77127	28.266364163347	2148
16	77292	28.316364163347	2153
16	77514	28.366364163347	2158
16	77679	28.416364163347	2163
16	77885	28.466364163347	2168
16	78050	28.516364163347	2173
16	78256	28.566364163347	2178
16	78421	28.616364163347	2183
16	78659	28.666364163347	2188
16	78824	28.716364163347	2193
16	79024	28.766364163347	2198
16	79189	28.816364163347	2203
16	79411	28.866364163347	2208
16	79576	28.916364163347	2213
16	79782	28.966364163347	2218
16	79947	29.016364163347	2223
16	80169	29.066364163347	2228
16	80334	29.116364163347	2233
16	80556	29.166364163347	2238
16	80721	29.216364163347	2243
16	80943	29.266364163347	2248
16	81108	29.316364163347	2253
16	81330	29.366364163347	2258
16	81495	29.416364163347	2263
16	81717	29.466364163347	2268
16	81882	29.516364163347	2273
16	82088	29.566364163347	2278
16	82253	29.616364163347	2283
16	82475	29.666364163347	2288
16	82640	29.716364163347	2293
16	82862	29.766364163347	2298
16	83027	29.816364163347	2303
16	83249	29.866364163347	2308
16	83414	29.916364163347	2313
16	83636	29.966364163347	2318
16	83801	30.016364163347	2323
16	84039	30.066364163347	2328
16	84204	30.116364163347	2333
16	84415	30.166364163347	2338
16	84580	30.216364163347	2343
16	84786	30.266364163347	2348
16	84951	30.316364163347	2353
16	85162	30.366364163347	2358
16	85327	30.416364163347	2363
16	85549	30.466364163347	2368
16	85714	30.516364163347	2373
16	85936	30.566364163347	2378
16	86101	30.616364163347	2383
16	86323	30.666364163347	2388
16	86488	30.716364163347	2393
16	86710	30.766364163347	2398
16	86875	30.816364163347	2403
16	87097	30.866364163347	2408
16	87262	30.916364163347	2413
16	87484	30.966364163347	2418
16	87649	31.016364163347	2423
16	87871	31.066364163347	2428
16	88036	31.116364163347	2433
16	88242	31.166364163347	2438
16	88407	31.216364163347	2443
16	88618	31.266364163347	2448
16	88783	31.316364163347	2453
16	88989	31.366364163347	2458
16	89154	31.416364163347	2463
16	89376	31.466364163347	2468
16	89541	31.516364163347	2473
16	89763	31.566364163347	2478
16	89928	31.616364163347	2483
16	90150	31.666364163347	2488
16	90315	31.716364163347	2493
16	90537	31.766364163347	2498
16	90702	31.816364163347	2503
16	90902	31.866364163347	2508
16	91067	31.916364163347	2513
16	91289	31.966364163347	2518
16	91454	32.016364163347	2523
16	91692	32.066364163347	2528
16	91857	32.116364163347	2533
16	92068	32.166364163347	2538
16	92233	32.216364163347	2543
16	92455	32.266364163347	2548
16	92620	32.316364163347	2553
16	92842	32.366364163347	2558
16	93007	32.416364163347	2563
16	93213	32.466364163347	2568
16	93378	32.516364163347	2573
16	93616	32.566364163347	2578
16	93781	32.616364163347	2583
16	94003	32.666364163347	2588
16	94168	32.716364163347	2593
16	94406	32.766364163347	2598
16	94571	32.816364163347	2603
16	94777	32.866364163347	2608
16	94942	32.916364163347	2613
16	95180	32.966364163347	2618
16	95345	33.016364163347	2623
16	95567	33.066364163347	2628
16	95732	33.116364163347	2633
16	95970	33.166364163347	2638
16	96135	33.216364163347	2643
16	96357	33.266364163347	2648
16	96522	33.316364163347	2653
16	96728	33.366364163347	2658
16	96893	33.416364163347	2663
16	97099	33.466364163347	2668
16	97264	33.516364163347	2673
16	97475	33.566364163347	2678
16	97640	33.616364163347	2683
16	97862	33.666364163347	2688
16	98027	33.716364163347	2693
16	98249	33.766364163347	2698
16	98414	33.816364163347	2703
16	98625	33.866364163347	2708
16	98790	33.916364163347	2713
16	99001	33.966364163347	2718
16	99166	34.016364163347	2723
16	99388	34.066364163347	2728
16	99553	34.116364163347	2733
16	99775	34.166364163347	2738
16	99940	34.216364163347	2743
16	100178	34.266364163347	2748
16	100343	34.316364163347	2753
16	100549	34.366364163347	2758
16	100714	34.416364163347	2763
16	100936	34.466364163347	2768
16	101101	34.516364163347	2773
16	101307	34.566364163347	2778
16	101472	34.616364163347	2783
16	101694	34.666364163347	2788
16	101859	34.716364163347	2793
16	102065	34.766364163347	2798
16	102230	34.816364163347	2803
16	102441	34.866364163347	2808
16	102606	34.916364163347	2813
16	102828	34.966364163347	2818
16	102993	35.016364163347	2823
16	103199	35.066364163347	2828
16	103364	35.116364163347	2833
16	103570	35.166364163347	2838
16	103735	35.216364163347	2843
16	103941	35.266364163347	2848
16	104106	35.316364163347	2853
16	104328	35.366364163347	2858
16	104493	35.416364163347	2863
16	104715	35.466364163347	2868
16	104880	35.516364163347	2873
16	105102	35.566364163347	2878
16	105267	35.616364163347	2883
16	105478	35.666364163347	2888
16	105643	35.716364163347	2893
16	105854	35.766364163347	2898
16	106019	35.816364163347	2903
16	106241	35.866364163347	2908
16	106406	35.916364163347	2913
16	106617	35.966364163347	2918
16	106782	36.016364163347	2923
16	107004	36.066364163347	2928
16	107169	36.116364163347	2933
16	107391	36.166364163347	2938
16	107556	36.216364163347	2943
16	107778	36.266364163347	2948
16	107943	36.316364163347	2953
16	108149	36.366364163347	2958
16	108314	36.416364163347	2963
16	108536	36.466364163347	2968
16	108701	36.516364163347	2973
16	108923	36.566364163347	2978
16	109088	36.616364163347	2983
16	109294	36.666364163347	2988
16	109459	36.716364163347	2993
16	109670	36.766364163347	2998
16	109835	36.816364163347	3003
16	110057	36.866364163347	3008
16	110222	36.916364163347	3013
16	110444	36.966364163347	3018
16	110609	37.016364163347	3023
16	110831	37.066364163347	3028
16	110996	37.116364163347	3033
16	111218	37.166364163347	3038
16	111383	37.216364163347	3043
16	111605	37.266364163347	3048
16	111770	37.316364163347	3053
16	111992	37.366364163347	3058
16	112157	37.416364163347	3063
16	112379	37.466364163347	3068
16	112544	37.516364163347	3073
16	112766	37.566364163347	3078
16	112931	37.616364163347	3083
16	113153	37.666364163347	3088
16	113318	37.716364163347	3093
16	113524	37.766364163347	3098
16	113689	37.816364163347	3103
16	113911	37.866364163347	3108
16	114076	37.916364163347	3113
16	114282	37.966364163347	3118
16	114447	38.016364163347	3123
16	114685	38.066364163347	3128
16	114850	38.116364163347	3133
16	115088	38.166364163347	3138
16	115253	38.216364163347	3143
16	115464	38.266364163347	3148
16	115629	38.316364163347	3153
16	115851	38.366364163347	3158
16	116016	38.416364163347	3163
16	116222	38.466364163347	3168
16	116387	38.516364163347	3173
16	116593	38.566364163347	3178
16	116758	38.616364163347	3183
16	116996	38.666364163347	3188
16	117161	38.716364163347	3193
16	117383	38.766364163347	3198
16	117548	38.816364163347	3203
16	117770	38.866364163347	3208
16	117935	38.916364163347	3213
16	118157	38.966364163347	3218
16	118322	39.016364163347	3223
16	118544	39.066364163347	3228
16	118709	39.116364163347	3233
16	118920	39.166364163347	3238
16	119085	39.216364163347	3243
16	119307	39.266364163347	3248
16	119472	39.316364163347	3253
16	119683	39.366364163347	3258
16	119848	39.416364163347	3263
16	120054	39.466364163347	3268
16	120219	39.516364163347	3273
16	120430	39.566364163347	3278
16	120595	39.616364163347	3283
16	120833	39.666364163347	3288
16	120998	39.716364163347	3293
16	121236	39.766364163347	3298
16	121401	39.816364163347	3303
16	121639	39.866364163347	3308
16	121804	39.916364163347	3313
16	122042	39.966364163347	3318
16	122207	40.016364163347	3323
16	122429	40.066364163347	3328
16	122594	40.116364163347	3333
16	122805	40.166364163347	3338
16	122970	40.216364163347	3343
16	123192	40.266364163347	3348
16	123357	40.316364163347	3353
16	123579	40.366364163347	3358
16	123744	40.416364163347	3363
16	123950	40.466364163347	3368
16	124115	40.516364163347	3373
16	124337	40.566364163347	3378
16	124502	40.616364163347	3383
16	124724	40.666364163347	3388
16	124889	40.716364163347	3393
16	125127	40.766364163347	3398
16	125292	40.816364163347	3403
16	125503	40.866364163347	3408
16	125668	40.916364163347	3413
16	125874	40.966364163347	3418
16	126039	41.016364163347	3423
16	126261	41.066364163347	3428
16	126426	41.116364163347	3433
16	126632	41.166364163347	3438
16	126797	41.216364163347	3443
16	127008	41.266364163347	3448
16	127173	41.316364163347	3453
16	127395	41.366364163347	3458
16	127560	41.416364163347	3463
16	127771	41.466364163347	3468
16	127936	41.516364163347	3473
16	128158	41.566364163347	3478
16	128323	41.616364163347	3483
16	128561	41.666364163347	3488
16	128726	41.716364163347	3493
16	128948	41.766364163347	3498
16	129113	41.816364163347	3503
16	129335	41.866364163347	3508
16	129500	41.916364163347	3513
16	129722	41.966364163347	3518
16	129887	42.016364163347	3523
16	130109	42.066364163347	3528
16	130274	42.116364163347	3533
16	130496	42.166364163347	3538
16	130661	42.216364163347	3543
16	130883	42.266364163347	3548
16	131048	42.316364163347	3553
16	131286	42.366364163347	3558
16	131451	42.416364163347	3563
16	131673	42.466364163347	3568
16	131838	42.516364163347	3573
16	132076	42.566364163347	3578
16	132241	42.616364163347	3583
16	132452	42.666364163347	3588
16	132617	42.716364163347	3593
16	132839	42.766364163347	3598
16	133004	42.816364163347	3603
16	133226	42.866364163347	3608
16	133391	42.916364163347	3613
16	133613	42.966364163347	3618
16	133778	43.016364163347	3623
16	134000	43.066364163347	3628
16	134165	43.116364163347	3633
16	134376	43.166364163347	3638
16	134541	43.216364163347	3643
16	134763	43.266364163347	3648
16	134928	43.316364163347	3653
16	135134	43.366364163347	3658
16	135299	43.416364163347	3663
16	135521	43.466364163347	3668
16	135686	43.516364163347	3673
16	135908	43.566364163347	3678
16	136073	43.616364163347	3683
16	136295	43.666364163347	3688
16	136460	43.716364163347	3693
16	136698	43.766364163347	3698
16	136863	43.816364163347	3703
16	137085	43.866364163347	3708
16	137250	43.916364163347	3713
16	137461	43.966364163347	3718
16	137626	44.016364163347	3723
16	137826	44.066364163347	3728
16	137991	44.116364163347	3733
16	138229	44.166364163347	3738
16	138394	44.216364163347	3743
16	138632	44.266364163347	3748
16	138797	44.316364163347	3753
16	139003	44.366364163347	3758
16	139168	44.416364163347	3763
16	139379	44.466364163347	3768
16	139544	44.516364163347	3773
16	139766	44.566364163347	3778
16	139931	44.616364163347	3783
16	140153	44.666364163347	3788
16	140318	44.716364163347	3793
16	140529	44.766364163347	3798
16	140694	44.816364163347	3803
16	140916	44.866364163347	3808
16	141081	44.916364163347	3813
16	141303	44.966364163347	3818
16	141468	45.016364163347	3823
16	141690	45.066364163347	3828
16	141855	45.116364163347	3833
16	142077	45.166364163347	3838
16	142242	45.216364163347	3843
16	142453	45.266364163347	3848
16	142618	45.316364163347	3853
16	142824	45.366364163347	3858
16	142989	45.416364163347	3863
16	143227	45.466364163347	3868
16	143392	45.516364163347	3873
16	143614	45.566364163347	3878
16	143779	45.616364163347	3883
16	144001	45.666364163347	3888
16	144166	45.716364163347	3893
16	144388	45.766364163347	3898
16	144553	45.816364163347	3903
16	144764	45.866364163347	3908
16	144929	45.916364163347	3913
16	145151	45.966364163347	3918
16	145316	46.016364163347	3923
16	145538	46.066364163347	3928
16	145703	46.116364163347	3933
16	145925	46.166364163347	3938
16	146090	46.216364163347	3943
16	146312	46.266364163347	3948
16	146477	46.316364163347	3953
16	146715	46.366364163347	3958
16	146880	46.416364163347	3963
16	147102	46.466364163347	3968
16	147267	46.516364163347	3973
16	147478	46.566364163347	3978
16	147643	46.616364163347	3983
16	147865	46.666364163347	3988
16	148030	46.716364163347	3993
16	148236	46.766364163347	3998
16	148401	46.816364163347	4003
16	148612	46.866364163347	4008
16	148777	46.916364163347	4013
16	148999	46.966364163347	4018
16	149164	47.016364163347	4023
16	149375	47.066364163347	4028
16	149540	47.116364163347	4033
16	149751	47.166364163347	4038
16	149916	47.216364163347	4043
16	150138	47.266364163347	4048
16	150303	47.316364163347	4053
16	150509	47.366364163347	4058
16	150674	47.416364163347	4063
16	150896	47.466364163347	4068
16	151061	47.516364163347	4073
16	151283	47.566364163347	4078
16	151448	47.616364163347	4083
16	151670	47.666364163347	4088
16	151835	47.716364163347	4093
16	152057	47.766364163347	4098
16	152222	47.816364163347	4103
16	152428	47.866364163347	4108
16	152593	47.916364163347	4113
16	152815	47.966364163347	4118
16	152980	48.016364163347	4123
16	153186	48.066364163347	4128
16	153351	48.116364163347	4133
16	153573	48.166364163347	4138
16	153738	48.216364163347	4143
16	153976	48.266364163347	4148
16	154141	48.316364163347	4153
16	154363	48.366364163347	4158
16	154528	48.416364163347	4163
16	154750	48.466364163347	4168
16	154915	48.516364163347	4173
16	155137	48.566364163347	4178
16	155302	48.616364163347	4183
16	155524	48.666364163347	4188
16	155689	48.716364163347	4193
16	155911	48.766364163347	4198
16	156076	48.816364163347	4203
16	156287	48.866364163347	4208
16	156452	48.916364163347	4213
16	156663	48.966364163347	4218
16	156828	49.016364163347	4223
16	157050	49.066364163347	4228
16	157215	49.116364163347	4233
16	157426	49.166364163347	4238
16	157591	49.216364163347	4243
16	157802	49.266364163347	4248
16	157967	49.316364163347	4253
16	158173	49.366364163347	4258
16	158338	49.416364163347	4263
16	158576	49.466364163347	4268
16	158741	49.516364163347	4273
16	158963	49.566364163347	4278
16	159128	49.616364163347	4283
16	159334	49.666364163347	4288
16	159499	49.716364163347	4293
16	159721	49.766364163347	4298
16	159886	49.816364163347	4303
16	160092	49.866364163347	4308
16	160257	49.916364163347	4313
16	160468	49.966364163347	4318
16	160633	50.016364163347	4323
16	160839	50.066364163347	4328
16	161004	50.116364163347	4333
16	161210	50.166364163347	4338
16	161375	50.216364163347	4343
16	161597	50.266364163347	4348
16	161762	50.316364163347	4353
16	161984	50.366364163347	4358
16	162149	50.416364163347	4363
16	162371	50.466364163347	4368
16	162536	50.516364163347	4373
16	162758	50.566364163347	4378
16	162923	50.616364163347	4383
16	163134	50.666364163347	4388
16	163299	50.716364163347	4393
16	163521	50.766364163347	4398
16	163686	50.816364163347	4403
16	163886	50.866364163347	4408
16	164051	50.916364163347	4413
16	164273	50.966364163347	4418
16	164438	51.016364163347	4423
16	164660	51.066364163347	4428
16	164825	51.116364163347	4433
16	165036	51.166364163347	4438
16	165201	51.216364163347	4443
16	165423	51.266364163347	4448
16	165588	51.316364163347	4453
16	165799	51.366364163347	4458
16	165964	51.416364163347	4463
16	166170	51.466364163347	4468
16	166335	51.516364163347	4473
16	166546	51.566364163347	4478
16	166711	51.616364163347	4483
16	166922	51.666364163347	4488
16	167087	51.716364163347	4493
16	167325	51.766364163347	4498
16	167490	51.816364163347	4503
16	167728	51.866364163347	4508
16	167893	51.916364163347	4513
16	168115	51.966364163347	4518
16	168280	52.016364163347	4523
16	168502	52.066364163347	4528
16	168667	52.116364163347	4533
16	168889	52.166364163347	4538
16	169054	52.216364163347	4543
16	169276	52.266364163347	4548
16	169441	52.316364163347	4553
16	169652	52.366364163347	4558
16	169817	52.416364163347	4563
16	170055	52.466364163347	4568
16	170220	52.516364163347	4573
16	170442	52.566364163347	4578
16	170607	52.616364163347	4583
16	170829	52.666364163347	4588
16	170994	52.716364163347	4593
16	171205	52.766364163347	4598
16	171370	52.816364163347	4603
16	171592	52.866364163347	4608
16	171757	52.916364163347	4613
16	171968	52.966364163347	4618
16	172133	53.016364163347	4623
16	172355	53.066364163347	4628
16	172520	53.116364163347	4633
16	172742	53.166364163347	4638
16	172907	53.216364163347	4643
16	173129	53.266364163347	4648
16	173294	53.316364163347	4653
16	173532	53.366364163347	4658
16	173697	53.416364163347	4663
16	173919	53.466364163347	4668
16	174084	53.516364163347	4673
16	174306	53.566364163347	4678
16	174471	53.616364163347	4683
16	174693	53.666364163347	4688
16	174858	53.716364163347	4693
16	175096	53.766364163347	4698
16	175261	53.816364163347	4703
16	175483	53.866364163347	4708
16	175648	53.916364163347	4713
16	175886	53.966364163347	4718
16	176051	54.016364163347	4723
16	176257	54.066364163347	4728
16	176422	54.116364163347	4733
16	176644	54.166364163347	4738
16	176809	54.216364163347	4743
16	177047	54.266364163347	4748
16	177212	54.316364163347	4753
16	177434	54.366364163347	4758
16	177599	54.416364163347	4763
16	177821	54.466364163347	4768
16	177986	54.516364163347	4773
16	178192	54.566364163347	4778
16	178357	54.616364163347	4783
16	178568	54.666364163347	4788
16	178733	54.716364163347	4793
16	178955	54.766364163347	4798
16	179120	54.816364163347	4803
16	179342	54.866364163347	4808
16	179507	54.916364163347	4813
16	179713	54.966364163347	4818
16	179878	55.016364163347	4823
16	180100	55.066364163347	4828
16	180265	55.116364163347	4833
16	180487	55.166364163347	4838
16	180652	55.216364163347	4843
16	180858	55.266364163347	4848
16	181023	55.316364163347	4853
16	181245	55.366364163347	4858
16	181410	55.416364163347	4863
16	181616	55.466364163347	4868
16	181781	55.516364163347	4873
16	182003	55.566364163347	4878
16	182168	55.616364163347	4883
16	182390	55.666364163347	4888
16	182555	55.716364163347	4893
16	182777	55.766364163347	4898
16	182942	55.816364163347	4903
16	183180	55.866364163347	4908
16	183345	55.916364163347	4913
16	183567	55.966364163347	4918
16	183732	56.016364163347	4923
16	183970	56.066364163347	4928
16	184135	56.116364163347	4933
16	184357	56.166364163347	4938
16	184522	56.216364163347	4943
16	184728	56.266364163347	4948
16	184893	56.316364163347	4953
16	185099	56.366364163347	4958
16	185264	56.416364163347	4963
16	185475	56.466364163347	4968
16	185640	56.516364163347	4973
16	185862	56.566364163347	4978
16	186027	56.616364163347	4983
16	186238	56.666364163347	4988
16	186403	56.716364163347	4993
16	186625	56.766364163347	4998
16	186790	56.816364163347	5003
16	187012	56.866364163347	5008
16	187177	56.916364163347	5013
16	187388	56.966364163347	5018
16	187553	57.016364163347	5023
16	187775	57.066364163347	5028
16	187940	57.116364163347	5033
16	188162	57.166364163347	5038
16	188327	57.216364163347	5043
16	188549	57.266364163347	5048
16	188714	57.316364163347	5053
16	188920	57.366364163347	5058
16	189085	57.416364163347	5063
16	189323	57.466364163347	5068
16	189488	57.516364163347	5073
16	189710	57.566364163347	5078
16	189875	57.616364163347	5083
16	190097	57.666364163347	5088
16	190262	57.716364163347	5093
16	190484	57.766364163347	5098
16	190649	57.816364163347	5103
16	190871	57.866364163347	5108
16	191036	57.916364163347	5113
16	191247	57.966364163347	5118
16	191412	58.016364163347	5123
16	191650	58.066364163347	5128
16	191815	58.116364163347	5133
16	192037	58.166364163347	5138
16	192202	58.216364163347	5143
16	192413	58.266364163347	5148
16	192578	58.316364163347	5153
16	192784	58.366364163347	5158
16	192949	58.416364163347	5163
16	193155	58.466364163347	5168
16	193320	58.516364163347	5173
16	193542	58.566364163347	5178
16	193707	58.616364163347	5183
16	193945	58.666364163347	5188
16	194110	58.716364163347	5193
16	194348	58.766364163347	5198
16	194513	58.816364163347	5203
16	194735	58.866364163347	5208
16	194900	58.916364163347	5213
16	195106	58.966364163347	5218
16	195271	59.016364163347	5223
16	195493	59.066364163347	5228
16	195658	59.116364163347	5233
16	195864	59.166364163347	5238
16	196029	59.216364163347	5243
16	196251	59.266364163347	5248
16	196416	59.316364163347	5253
16	196654	59.366364163347	5258
16	196819	59.416364163347	5263
16	197030	59.466364163347	5268
16	197195	59.516364163347	5273
16	197406	59.566364163347	5278
16	197571	59.616364163347	5283
16	197793	59.666364163347	5288
16	197958	59.716364163347	5293
16	198164	59.766364163347	5298
16	198329	59.816364163347	5303
16	198551	59.866364163347	5308
16	198716	59.916364163347	5313
16	198954	59.966364163347	5318
16	199119	60.016364163347	5323
16	199341	60.066364163347	5328
16	199506	60.116364163347	5333
16	199728	60.166364163347	5338
16	199893	60.216364163347	5343
16	200099	60.266364163347	5348
16	200264	60.316364163347	5353
[...]
14	140687	44.800071831871	0.002
14	140703	44.850071831871	0.001
14	141074	44.900071831871	0.002
14	141090	44.950071831871	0.001
14	141461	45.000071831871	0.002
14	141477	45.050071831871	0.001
14	141848	45.100071831871	0.002
14	141864	45.150071831871	0.001
14	142235	45.200071831871	0.002
14	142251	45.250071831871	0.001
14	142611	45.300071831871	0.002
14	142627	45.350071831871	0.001
14	142982	45.400071831871	0.002
14	142998	45.450071831871	0.001
14	143385	45.500071831871	0.002
14	143401	45.550071831871	0.001
14	143772	45.600071831871	0.002
14	143788	45.650071831871	0.001
14	144159	45.700071831871	0.002
14	144175	45.750071831871	0.001
14	144546	45.800071831871	0.002
14	144562	45.850071831871	0.001
14	144922	45.900071831871	0.002
14	144938	45.950071831871	0.001
14	145309	46.000071831871	0.002
14	145325	46.050071831871	0.001
14	145696	46.100071831871	0.002
14	145712	46.150071831871	0.001
14	146083	46.200071831871	0.002
14	146099	46.250071831871	0.001
14	146470	46.300071831871	0.002
14	146486	46.350071831871	0.001
14	146873	46.400071831871	0.002
14	146889	46.450071831871	0.001
14	147260	46.500071831871	0.002
14	147276	46.550071831871	0.001
14	147636	46.600071831871	0.002
14	147652	46.650071831871	0.001
14	148023	46.700071831871	0.002
14	148039	46.750071831871	0.001
14	148394	46.800071831871	0.002
14	148410	46.850071831871	0.001
14	148770	46.900071831871	0.002
14	148786	46.950071831871	0.001
14	149157	47.000071831871	0.002
14	149173	47.050071831871	0.001
14	149533	47.100071831871	0.002
14	149549	47.150071831871	0.001
14	149909	47.200071831871	0.002
14	149925	47.250071831871	0.001
14	150296	47.300071831871	0.002
14	150312	47.350071831871	0.001
14	150667	47.400071831871	0.002
14	150683	47.450071831871	0.001
14	151054	47.500071831871	0.002
14	151070	47.550071831871	0.001
14	151441	47.600071831871	0.002
14	151457	47.650071831871	0.001
14	151828	47.700071831871	0.002
14	151844	47.750071831871	0.001
14	152215	47.800071831871	0.002
14	152231	47.850071831871	0.001
14	152586	47.900071831871	0.002
14	152602	47.950071831871	0.001
14	152973	48.000071831871	0.002
14	152989	48.050071831871	0.001
14	153344	48.100071831871	0.002
14	153360	48.150071831871	0.001
14	153731	48.200071831871	0.002
14	153747	48.250071831871	0.001
14	154134	48.300071831871	0.002
14	154150	48.350071831871	0.001
14	154521	48.400071831871	0.002
14	154537	48.450071831871	0.001
14	154908	48.500071831871	0.002
14	154924	48.550071831871	0.001
14	155295	48.600071831871	0.002
14	155311	48.650071831871	0.001
14	155682	48.700071831871	0.002
14	155698	48.750071831871	0.001
14	156069	48.800071831871	0.002
14	156085	48.850071831871	0.001
14	156445	48.900071831871	0.002
14	156461	48.950071831871	0.001
14	156821	49.000071831871	0.002
14	156837	49.050071831871	0.001
14	157208	49.100071831871	0.002
14	157224	49.150071831871	0.001
14	157584	49.200071831871	0.002
14	157600	49.250071831871	0.001
14	157960	49.300071831871	0.002
14	157976	49.350071831871	0.001
14	158331	49.400071831871	0.002
14	158347	49.450071831871	0.001
14	158734	49.500071831871	0.002
14	158750	49.550071831871	0.001
14	159121	49.600071831871	0.002
14	159137	49.650071831871	0.001
14	159492	49.700071831871	0.002
14	159508	49.750071831871	0.001
14	159879	49.800071831871	0.002
14	159895	49.850071831871	0.001
14	160250	49.900071831871	0.002
14	160266	49.950071831871	0.001
14	160626	50.000071831871	0.002
14	160642	50.050071831871	0.001
14	160997	50.100071831871	0.002
14	161013	50.150071831871	0.001
14	161368	50.200071831871	0.002
14	161384	50.250071831871	0.001
14	161755	50.300071831871	0.002
14	161771	50.350071831871	0.001
14	162142	50.400071831871	0.002
14	162158	50.450071831871	0.001
14	162529	50.500071831871	0.002
14	162545	50.550071831871	0.001
14	162916	50.600071831871	0.002
14	162932	50.650071831871	0.001
14	163292	50.700071831871	0.002
14	163308	50.750071831871	0.001
14	163679	50.800071831871	0.002
14	163695	50.850071831871	0.001
14	164044	50.900071831871	0.002
14	164060	50.950071831871	0.001
14	164431	51.000071831871	0.002
14	164447	51.050071831871	0.001
14	164818	51.100071831871	0.002
14	164834	51.150071831871	0.001
14	165194	51.200071831871	0.002
14	165210	51.250071831871	0.001
14	165581	51.300071831871	0.002
14	165597	51.350071831871	0.001
14	165957	51.400071831871	0.002
14	165973	51.450071831871	0.001
14	166328	51.500071831871	0.002
14	166344	51.550071831871	0.001
14	166704	51.600071831871	0.002
14	166720	51.650071831871	0.001
14	167080	51.700071831871	0.002
14	167096	51.750071831871	0.001
14	167483	51.800071831871	0.002
14	167499	51.850071831871	0.001
14	167886	51.900071831871	0.002
14	167902	51.950071831871	0.001
14	168273	52.000071831871	0.002
14	168289	52.050071831871	0.001
14	168660	52.100071831871	0.002
14	168676	52.150071831871	0.001
14	169047	52.200071831871	0.002
14	169063	52.250071831871	0.001
14	169434	52.300071831871	0.002
14	169450	52.350071831871	0.001
14	169810	52.400071831871	0.002
14	169826	52.450071831871	0.001
14	170213	52.500071831871	0.002
14	170229	52.550071831871	0.001
14	170600	52.600071831871	0.002
14	170616	52.650071831871	0.001
14	170987	52.700071831871	0.002
14	171003	52.750071831871	0.001
14	171363	52.800071831871	0.002
14	171379	52.850071831871	0.001
14	171750	52.900071831871	0.002
14	171766	52.950071831871	0.001
14	172126	53.000071831871	0.002
14	172142	53.050071831871	0.001
14	172513	53.100071831871	0.002
14	172529	53.150071831871	0.001
14	172900	53.200071831871	0.002
14	172916	53.250071831871	0.001
14	173287	53.300071831871	0.002
14	173303	53.350071831871	0.001
14	173690	53.400071831871	0.002
14	173706	53.450071831871	0.001
14	174077	53.500071831871	0.002
14	174093	53.550071831871	0.001
14	174464	53.600071831871	0.002
14	174480	53.650071831871	0.001
14	174851	53.700071831871	0.002
14	174867	53.750071831871	0.001
14	175254	53.800071831871	0.002
14	175270	53.850071831871	0.001
14	175641	53.900071831871	0.002
14	175657	53.950071831871	0.001
14	176044	54.000071831871	0.002
14	176060	54.050071831871	0.001
14	176415	54.100071831871	0.002
14	176431	54.150071831871	0.001
14	176802	54.200071831871	0.002
14	176818	54.250071831871	0.001
14	177205	54.300071831871	0.002
14	177221	54.350071831871	0.001
14	177592	54.400071831871	0.002
14	177608	54.450071831871	0.001
14	177979	54.500071831871	0.002
14	177995	54.550071831871	0.001
14	178350	54.600071831871	0.002
14	178366	54.650071831871	0.001
14	178726	54.700071831871	0.002
14	178742	54.750071831871	0.001
14	179113	54.800071831871	0.002
14	179129	54.850071831871	0.001
14	179500	54.900071831871	0.002
14	179516	54.950071831871	0.001
14	179871	55.000071831871	0.002
14	179887	55.050071831871	0.001
14	180258	55.100071831871	0.002
14	180274	55.150071831871	0.001
14	180645	55.200071831871	0.002
14	180661	55.250071831871	0.001
14	181016	55.300071831871	0.002
14	181032	55.350071831871	0.001
14	181403	55.400071831871	0.002
14	181419	55.450071831871	0.001
14	181774	55.500071831871	0.002
14	181790	55.550071831871	0.001
14	182161	55.600071831871	0.002
14	182177	55.650071831871	0.001
14	182548	55.700071831871	0.002
14	182564	55.750071831871	0.001
14	182935	55.800071831871	0.002
14	182951	55.850071831871	0.001
14	183338	55.900071831871	0.002
14	183354	55.950071831871	0.001
14	183725	56.000071831871	0.002
14	183741	56.050071831871	0.001
14	184128	56.100071831871	0.002
14	184144	56.150071831871	0.001
14	184515	56.200071831871	0.002
14	184531	56.250071831871	0.001
14	184886	56.300071831871	0.002
14	184902	56.350071831871	0.001
14	185257	56.400071831871	0.002
14	185273	56.450071831871	0.001
14	185633	56.500071831871	0.002
14	185649	56.550071831871	0.001
14	186020	56.600071831871	0.002
14	186036	56.650071831871	0.001
14	186396	56.700071831871	0.002
14	186412	56.750071831871	0.001
14	186783	56.800071831871	0.002
14	186799	56.850071831871	0.001
14	187170	56.900071831871	0.002
14	187186	56.950071831871	0.001
14	187546	57.000071831871	0.002
14	187562	57.050071831871	0.001
14	187933	57.100071831871	0.002
14	187949	57.150071831871	0.001
14	188320	57.200071831871	0.002
14	188336	57.250071831871	0.001
14	188707	57.300071831871	0.002
14	188723	57.350071831871	0.001
14	189078	57.400071831871	0.002
14	189094	57.450071831871	0.001
14	189481	57.500071831871	0.002
14	189497	57.550071831871	0.001
14	189868	57.600071831871	0.002
14	189884	57.650071831871	0.001
14	190255	57.700071831871	0.002
14	190271	57.750071831871	0.001
14	190642	57.800071831871	0.002
14	190658	57.850071831871	0.001
14	191029	57.900071831871	0.002
14	191045	57.950071831871	0.001
14	191405	58.000071831871	0.002
14	191421	58.050071831871	0.001
14	191808	58.100071831871	0.002
14	191824	58.150071831871	0.001
14	192195	58.200071831871	0.002
14	192211	58.250071831871	0.001
14	192571	58.300071831871	0.002
14	192587	58.350071831871	0.001
14	192942	58.400071831871	0.002
14	192958	58.450071831871	0.001
14	193313	58.500071831871	0.002
14	193329	58.550071831871	0.001
14	193700	58.600071831871	0.002
14	193716	58.650071831871	0.001
14	194103	58.700071831871	0.002
14	194119	58.750071831871	0.001
14	194506	58.800071831871	0.002
14	194522	58.850071831871	0.001
14	194893	58.900071831871	0.002
14	194909	58.950071831871	0.001
14	195264	59.000071831871	0.002
14	195280	59.050071831871	0.001
14	195651	59.100071831871	0.002
14	195667	59.150071831871	0.001
14	196022	59.200071831871	0.002
14	196038	59.250071831871	0.001
14	196409	59.300071831871	0.002
14	196425	59.350071831871	0.001
14	196812	59.400071831871	0.002
14	196828	59.450071831871	0.001
14	197188	59.500071831871	0.002
14	197204	59.550071831871	0.001
14	197564	59.600071831871	0.002
14	197580	59.650071831871	0.001
14	197951	59.700071831871	0.002
14	197967	59.750071831871	0.001
14	198322	59.800071831871	0.002
14	198338	59.850071831871	0.001
14	198709	59.900071831871	0.002
14	198725	59.950071831871	0.001
14	199112	60.000071831871	0.002
14	199128	60.050071831871	0.001
14	199499	60.100071831871	0.002
14	199515	60.150071831871	0.001
14	199886	60.200071831871	0.002
14	199902	60.250071831871	0.001
14	200257	60.300071831871	0.002
14	200273	60.350071831871	0.001
14	200633	60.400071831871	0.002
14	200649	60.450071831871	0.001
14	201009	60.500071831871	0.002
14	201025	60.550071831871	0.001
14	201396	60.600071831871	0.002
14	201412	60.650071831871	0.001
14	201783	60.700071831871	0.002
14	201799	60.750071831871	0.001
14	202170	60.800071831871	0.002
14	202186	60.850071831871	0.001
14	202557	60.900071831871	0.002
14	202573	60.950071831871	0.001
14	202944	61.000071831871	0.002
14	202960	61.050071831871	0.001
14	203331	61.100071831871	0.002
14	203347	61.150071831871	0.001
14	203707	61.200071831871	0.002
14	203723	61.250071831871	0.001
14	204094	61.300071831871	0.002
14	204110	61.350071831871	0.001
14	204470	61.400071831871	0.002
14	204486	61.450071831871	0.001
14	204857	61.500071831871	0.002
14	204873	61.550071831871	0.001
14	205260	61.600071831871	0.002
14	205273	61.650071831871	0.001
14	205535	61.700071831871	0.002
14	205548	61.750071831871	0.001
14	205810	61.800071831871	0.002
14	205823	61.850071831871	0.001
14	206063	61.900071831871	0.002
14	206076	61.950071831871	0.001
14	206325	62.000071831871	0.002
14	206338	62.050071831871	0.001
14	206587	62.100071831871	0.002
14	206600	62.150071831871	0.001
14	206849	62.200071831871	0.002
14	206862	62.250071831871	0.001
14	207111	62.300071831871	0.002
14	207124	62.350071831871	0.001
14	207373	62.400071831871	0.002
14	207386	62.450071831871	0.001
14	207648	62.500071831871	0.002
14	207661	62.550071831871	0.001
14	207923	62.600071831871	0.002
14	207936	62.650071831871	0.001
14	208198	62.700071831871	0.002
14	208211	62.750071831871	0.001
14	208473	62.800071831871	0.002
14	208486	62.850071831871	0.001
14	208726	62.900071831871	0.002
14	208739	62.950071831871	0.001
14	209001	63.000071831871	0.002
14	209014	63.050071831871	0.001
14	209276	63.100071831871	0.002
14	209289	63.150071831871	0.001
14	209538	63.200071831871	0.002
14	209551	63.250071831871	0.001
14	209800	63.300071831871	0.002
14	209813	63.350071831871	0.001
14	210062	63.400071831871	0.002
14	210075	63.450071831871	0.001
14	210324	63.500071831871	0.002
14	210337	63.550071831871	0.001
14	210599	63.600071831871	0.002
14	210612	63.650071831871	0.001
14	210874	63.700071831871	0.002
14	210887	63.750071831871	0.001
14	211149	63.800071831871	0.002
14	211162	63.850071831871	0.001
14	211411	63.900071831871	0.002
14	211424	63.950071831871	0.001
14	211686	64.000071831871	0.002
14	211699	64.050071831871	0.001
14	211948	64.100071831871	0.002
14	211961	64.150071831871	0.001
14	212210	64.200071831871	0.002
14	212223	64.250071831871	0.001
14	212472	64.300071831871	0.002
14	212485	64.350071831871	0.001
14	212747	64.400071831871	0.002
14	212760	64.450071831871	0.001
14	213022	64.500071831871	0.002
14	213035	64.550071831871	0.001
14	213284	64.600071831871	0.002
14	213294	64.650071831871	0.001
14	213455	64.700071831871	0.002
14	213465	64.750071831871	0.001
14	213626	64.800071831871	0.002
14	213636	64.850071831871	0.001
14	213797	64.900071831871	0.002
14	213807	64.950071831871	0.001
14	213958	65.000071831871	0.002
14	213968	65.050071831871	0.001
14	214129	65.100071831871	0.002
14	214139	65.150071831871	0.001
14	214290	65.200071831871	0.002
14	214300	65.250071831871	0.001
14	214461	65.300071831871	0.002
14	214471	65.350071831871	0.001
14	214632	65.400071831871	0.002
14	214642	65.450071831871	0.001
14	214803	65.500071831871	0.002
14	214813	65.550071831871	0.001
14	214974	65.600071831871	0.002
14	214984	65.650071831871	0.001
14	215135	65.700071831871	0.002
14	215145	65.750071831871	0.001
14	215306	65.800071831871	0.002
14	215316	65.850071831871	0.001
14	215477	65.900071831871	0.002
14	215487	65.950071831871	0.001
14	215648	66.000071831871	0.002
14	215658	66.050071831871	0.001
14	215819	66.100071831871	0.002
14	215829	66.150071831871	0.001
14	215990	66.200071831871	0.002
14	216000	66.250071831871	0.001
14	216161	66.300071831871	0.002
14	216171	66.350071831871	0.001
14	216332	66.400071831871	0.002
14	216342	66.450071831871	0.001
14	216503	66.500071831871	0.002
14	216513	66.550071831871	0.001
14	216674	66.600071831871	0.002
14	216684	66.650071831871	0.001
14	216845	66.700071831871	0.002
14	216855	66.750071831871	0.001
14	217016	66.800071831871	0.002
14	217026	66.850071831871	0.001
14	217187	66.900071831871	0.002
14	217197	66.950071831871	0.001
14	217358	67.000071831871	0.002
14	217368	67.050071831871	0.001
14	217529	67.100071831871	0.002
14	217539	67.150071831871	0.001
14	217700	67.200071831871	0.002
14	217710	67.250071831871	0.001
14	217871	67.300071831871	0.002
14	217881	67.350071831871	0.001
14	218042	67.400071831871	0.002
14	218052	67.450071831871	0.001
14	218203	67.500071831871	0.002
14	218213	67.550071831871	0.001
14	218364	67.600071831871	0.002
14	218374	67.650071831871	0.001
14	218525	67.700071831871	0.002
14	218532	67.750071831871	0.001
14	218616	67.800071831871	0.002
14	218623	67.850071831871	0.001
14	218707	67.900071831871	0.002
14	218714	67.950071831871	0.001
14	218798	68.000071831871	0.002
14	218805	68.050071831871	0.001
14	218889	68.100071831871	0.002
14	218896	68.150071831871	0.001
14	218980	68.200071831871	0.002
14	218987	68.250071831871	0.001
14	219071	68.300071831871	0.002
14	219078	68.350071831871	0.001
14	219162	68.400071831871	0.002
14	219169	68.450071831871	0.001
14	219253	68.500071831871	0.002
14	219260	68.550071831871	0.001
14	219344	68.600071831871	0.002
14	219351	68.650071831871	0.001
14	219435	68.700071831871	0.002
14	219442	68.750071831871	0.001
14	219526	68.800071831871	0.002
14	219533	68.850071831871	0.001
14	219617	68.900071831871	0.002
14	219624	68.950071831871	0.001
14	219708	69.000071831871	0.002
14	219715	69.050071831871	0.001
14	219799	69.100071831871	0.002
14	219806	69.150071831871	0.001
14	219890	69.200071831871	0.002
14	219897	69.250071831871	0.001
14	219981	69.300071831871	0.002
14	219988	69.350071831871	0.001
14	220072	69.400071831871	0.002
14	220079	69.450071831871	0.001
14	220163	69.500071831871	0.002
14	220170	69.550071831871	0.001
14	220254	69.600071831871	0.002
14	220261	69.650071831871	0.001
14	220345	69.700071831871	0.002
14	220352	69.750071831871	0.001
14	220436	69.800071831871	0.002
14	220443	69.850071831871	0.001
14	220527	69.900071831871	0.002
14	220534	69.950071831871	0.001
14	220618	70.000071831871	0.002
14	220625	70.050071831871	0.001
14	220709	70.100071831871	0.002
14	220716	70.150071831871	0.001
14	220800	70.200071831871	0.002
14	220807	70.250071831871	0.001
14	220891	70.300071831871	0.002
14	220898	70.350071831871	0.001
14	220982	70.400071831871	0.002
14	220989	70.450071831871	0.001
14	221073	70.500071831871	0.002
14	221080	70.550071831871	0.001
14	221164	70.600071831871	0.002
14	221168	70.650071831871	0.001
14	221199	70.700071831871	0.002
14	221203	70.750071831871	0.001
14	221234	70.800071831871	0.002
14	221238	70.850071831871	0.001
14	221269	70.900071831871	0.002
14	221273	70.950071831871	0.001
14	221304	71.000071831871	0.002
14	221308	71.050071831871	0.001
14	221339	71.100071831871	0.002
14	221343	71.150071831871	0.001
14	221374	71.200071831871	0.002
14	221378	71.250071831871	0.001
14	221409	71.300071831871	0.002
14	221413	71.350071831871	0.001
14	221444	71.400071831871	0.002
14	221448	71.450071831871	0.001
14	221479	71.500071831871	0.002
14	221483	71.550071831871	0.001
14	221514	71.600071831871	0.002
14	221518	71.650071831871	0.001
14	221549	71.700071831871	0.002
14	221553	71.750071831871	0.001
14	221584	71.800071831871	0.002
14	221588	71.850071831871	0.001
14	221619	71.900071831871	0.002
14	221623	71.950071831871	0.001
14	221654	72.000071831871	0.002
14	221658	72.050071831871	0.001
14	221689	72.100071831871	0.002
14	221693	72.150071831871	0.001
14	221724	72.200071831871	0.002
14	221728	72.250071831871	0.001
14	221759	72.300071831871	0.002
14	221763	72.350071831871	0.001
14	221794	72.400071831871	0.002
14	221798	72.450071831871	0.001
14	221829	72.500071831871	0.002
14	221833	72.550071831871	0.001
14	221864	72.600071831871	0.002
14	221868	72.650071831871	0.001
14	221899	72.700071831871	0.002
14	221903	72.750071831871	0.001
14	221934	72.800071831871	0.002
14	221938	72.850071831871	0.001
14	221969	72.900071831871	0.002
14	221973	72.950071831871	0.001
14	222004	73.000071831871	0.002
14	222008	73.050071831871	0.001
14	222039	73.100071831871	0.002
14	222043	73.150071831871	0.001
14	222074	73.200071831871	0.002
14	222078	73.250071831871	0.001
14	222109	73.300071831871	0.002
14	222113	73.350071831871	0.001
14	222144	73.400071831871	0.002
14	222148	73.450071831871	0.001
14	222179	73.500071831871	0.002
14	222183	73.550071831871	0.001
14	222214	73.600071831871	0.002
14	222218	73.650071831871	0.001
14	222248	73.700071831871	0.002
14	222249	73.750071831871	0.001
14	222250	73.800071831871	0.002
14	222251	73.850071831871	0.001
14	222252	73.900071831871	0.002
14	222253	73.950071831871	0.001
14	222254	74.000071831871	0.002
14	222255	74.050071831871	0.001
14	222256	74.100071831871	0.002
14	222257	74.150071831871	0.001
14	222258	74.200071831871	0.002
14	222259	74.250071831871	0.001
14	222260	74.300071831871	0.002
14	222261	74.350071831871	0.001
14	222262	74.400071831871	0.002
14	222263	74.450071831871	0.001
14	222264	74.500071831871	0.002
14	222265	74.550071831871	0.001
14	222266	74.600071831871	0.002
14	222267	74.650071831871	0.001
14	222268	74.700071831871	0.002
14	222269	74.750071831871	0.001
14	222270	74.800071831871	0.002
14	222271	74.850071831871	0.001
14	222272	74.900071831871	0.002
14	222273	74.950071831871	0.001
14	222274	75.000071831871	0.002
14	222275	75.050071831871	0.001
14	222276	75.100071831871	0.002
14	222277	75.150071831871	0.001
14	222278	75.200071831871	0.002
14	222279	75.250071831871	0.001
14	222280	75.300071831871	0.002
14	222281	75.350071831871	0.001
14	222282	75.400071831871	0.002
14	222283	75.450071831871	0.001
14	222284	75.500071831871	0.002
14	222285	75.550071831871	0.001
14	222286	75.600071831871	0.002
14	222287	75.650071831871	0.001
14	222288	75.700071831871	0.002
14	222289	75.750071831871	0.001
14	222290	75.800071831871	0.002
14	222291	75.850071831871	0.001
14	222292	75.900071831871	0.002
14	222293	75.950071831871	0.001
