version 2
run VoIP-20ms_200B-7-20160923-14:10:38-14614
attr configname VoIP-20ms_200B
attr datetime 20160923-14:10:38
attr experiment VoIP-20ms_200B
attr inifile omnetpp.ini
attr iterationvars ""
attr iterationvars2 $repetition=7
attr measurement ""
attr network SymScenerio
attr processid 14614
attr repetition 7
attr replication #7
attr resultdir results
attr runnumber 7
attr seedset 7
param **.coreDebug false
param **.debug false
param *.**.nic.mac1609_4.bitrate 18Mbps
param *.**.nic.mac1609_4.txPower 20mW
param *.**.nic.mac1609_4.useServiceChannel true
param *.**.nic.phy80211p.analogueModels "xmldoc(\"config.xml\")"
param *.**.nic.phy80211p.decider "xmldoc(\"config.xml\")"
param *.**.nic.phy80211p.sensitivity -89dBm
param *.**.nic.phy80211p.thermalNoise -110dBm
param *.**.nic.phy80211p.usePropagationDelay true
param *.**.nic.phy80211p.useThermalNoise true
param *.annotations.draw false
param *.connectionManager.alpha 2.0
param *.connectionManager.carrierFrequency "5.890e9 Hz"
param *.connectionManager.pMax 20mW
param *.connectionManager.sat -89dBm
param *.connectionManager.sendDirect true
param *.manager.autoShutdown true
param *.manager.host "\"localhost\""
param *.manager.launchConfig "xmldoc(\"map.launchd.xml\")"
param *.manager.margin 25
param *.manager.moduleDisplayString "\"\""
param *.manager.moduleName "\"node\""
param *.manager.moduleType "\"symulacja.veins.nodes.Car\""
param *.manager.port 9999
param *.manager.updateInterval 0.1s
param *.node[*].appl.beaconInterval 1s
param *.node[*].appl.beaconPriority 3
param *.node[*].appl.dataOnSch false
param *.node[*].appl.dataPriority 2
param *.node[*].appl.debug false
param *.node[*].appl.maxOffset 0.005s
param *.node[*].appl.sendBeacons false
param *.node[*].appl.sendData true
param *.node[*].appl.sendVoIP true
param *.node[*].appl.voipInterval 0.020s
param *.node[*].appl.voipLengthBits 1600bit
param *.node[*].appl.voipOnSch true
param *.node[*].appl.voipPriority 3
param *.node[*].applType "\"Sym11p\""
param *.node[*].veinsmobility.x 0
param *.node[*].veinsmobility.y 0
param *.node[*].veinsmobility.z 1.895
param *.node[*].veinsmobilityType "\"symulacja.veins.modules.mobility.traci.TraCIMobility\""
param *.playgroundSizeX 9000m
param *.playgroundSizeY 9000m
param *.playgroundSizeZ 50m
param *.rsu[*].appl.beaconInterval 1s
param *.rsu[*].appl.beaconPriority 3
param *.rsu[*].appl.dataOnSch false
param *.rsu[*].appl.dataPriority 2
param *.rsu[*].appl.debug false
param *.rsu[*].appl.headerLength "256 bit"
param *.rsu[*].appl.maxOffset 0.005s
param *.rsu[*].appl.sendBeacons false
param *.rsu[*].appl.sendData false
param *.rsu[*].appl.sendVoIP false
param *.rsu[*].applType "\"SymRSU11p\""
param *.rsu[0].mobility.x 2160
param *.rsu[0].mobility.y 3100
param *.rsu[0].mobility.z 3
param *.world.use2D false
param *.world.useTorus false

vector 14  SymScenerio.rsu[0].nic.mac1609_4  "Interwały kanałów"  ETV
vector 23  SymScenerio.node[0].veinsmobility  posx  ETV
vector 24  SymScenerio.node[0].veinsmobility  posy  ETV
vector 22  SymScenerio.node[0].nic.mac1609_4  "Interwały kanałów"  ETV
vector 25  SymScenerio.node[0].veinsmobility  speed  ETV
vector 26  SymScenerio.node[0].veinsmobility  acceleration  ETV
vector 27  SymScenerio.node[0].veinsmobility  co2emission  ETV
vector 15  SymScenerio.node[0].appl  "TX Packets"  ETV
vector 16  SymScenerio.node[0].appl  "TX Total"  ETV
vector 17  SymScenerio.node[0].appl  Pakietyzacja  ETV
vector 5  SymScenerio.rsu[0].appl  nodeALL:vector  ETV
attr source  nodeALL
attr title  "Opoznienia ALL, vector"
vector 9  SymScenerio.rsu[0].appl  "RX Packet"  ETV
vector 0  SymScenerio.rsu[0].appl  node0:vector  ETV
attr source  node0
attr title  "Opoznienia node0, vector"
vector 36  SymScenerio.node[1].veinsmobility  posx  ETV
vector 37  SymScenerio.node[1].veinsmobility  posy  ETV
vector 35  SymScenerio.node[1].nic.mac1609_4  "Interwały kanałów"  ETV
vector 38  SymScenerio.node[1].veinsmobility  speed  ETV
vector 28  SymScenerio.node[1].appl  "TX Packets"  ETV
vector 29  SymScenerio.node[1].appl  "TX Total"  ETV
vector 30  SymScenerio.node[1].appl  Pakietyzacja  ETV
vector 1  SymScenerio.rsu[0].appl  node1:vector  ETV
attr source  node1
attr title  "Opoznienia node1, vector"
vector 39  SymScenerio.node[1].veinsmobility  acceleration  ETV
vector 40  SymScenerio.node[1].veinsmobility  co2emission  ETV
vector 49  SymScenerio.node[2].veinsmobility  posx  ETV
vector 50  SymScenerio.node[2].veinsmobility  posy  ETV
vector 48  SymScenerio.node[2].nic.mac1609_4  "Interwały kanałów"  ETV
vector 51  SymScenerio.node[2].veinsmobility  speed  ETV
vector 52  SymScenerio.node[2].veinsmobility  acceleration  ETV
vector 53  SymScenerio.node[2].veinsmobility  co2emission  ETV
vector 41  SymScenerio.node[2].appl  "TX Packets"  ETV
vector 42  SymScenerio.node[2].appl  "TX Total"  ETV
vector 43  SymScenerio.node[2].appl  Pakietyzacja  ETV
vector 2  SymScenerio.rsu[0].appl  node2:vector  ETV
attr source  node2
attr title  "Opoznienia node2, vector"
vector 62  SymScenerio.node[3].veinsmobility  posx  ETV
vector 63  SymScenerio.node[3].veinsmobility  posy  ETV
vector 61  SymScenerio.node[3].nic.mac1609_4  "Interwały kanałów"  ETV
vector 64  SymScenerio.node[3].veinsmobility  speed  ETV
vector 65  SymScenerio.node[3].veinsmobility  acceleration  ETV
vector 66  SymScenerio.node[3].veinsmobility  co2emission  ETV
vector 54  SymScenerio.node[3].appl  "TX Packets"  ETV
vector 55  SymScenerio.node[3].appl  "TX Total"  ETV
vector 56  SymScenerio.node[3].appl  Pakietyzacja  ETV
vector 3  SymScenerio.rsu[0].appl  node3:vector  ETV
attr source  node3
attr title  "Opoznienia node3, vector"
vector 75  SymScenerio.node[4].veinsmobility  posx  ETV
vector 76  SymScenerio.node[4].veinsmobility  posy  ETV
vector 74  SymScenerio.node[4].nic.mac1609_4  "Interwały kanałów"  ETV
vector 67  SymScenerio.node[4].appl  "TX Packets"  ETV
vector 68  SymScenerio.node[4].appl  "TX Total"  ETV
vector 69  SymScenerio.node[4].appl  Pakietyzacja  ETV
vector 4  SymScenerio.rsu[0].appl  node4:vector  ETV
attr source  node4
attr title  "Opoznienia node4, vector"
vector 77  SymScenerio.node[4].veinsmobility  speed  ETV
vector 78  SymScenerio.node[4].veinsmobility  acceleration  ETV
vector 79  SymScenerio.node[4].veinsmobility  co2emission  ETV
17	52	1.05899475811	1.002
17	67	1.07899475811	1.002
17	82	1.09899475811	1.002
17	87	1.11899475811	1.002
17	89	1.13899475811	1.002
17	132	1.15899475811	1.002
17	147	1.17899475811	1.002
17	162	1.19899475811	1.002
17	167	1.21899475811	1.002
17	169	1.23899475811	1.002
17	212	1.25899475811	1.002
17	227	1.27899475811	1.002
17	242	1.29899475811	1.002
17	247	1.31899475811	1.002
17	249	1.33899475811	1.002
17	292	1.35899475811	1.002
17	307	1.37899475811	1.002
17	322	1.39899475811	1.002
17	327	1.41899475811	1.002
17	329	1.43899475811	1.002
17	372	1.45899475811	1.002
17	387	1.47899475811	1.002
17	402	1.49899475811	1.002
17	407	1.51899475811	1.002
17	409	1.53899475811	1.002
17	452	1.55899475811	1.002
17	467	1.57899475811	1.002
17	482	1.59899475811	1.002
17	487	1.61899475811	1.002
17	489	1.63899475811	1.002
17	532	1.65899475811	1.002
17	547	1.67899475811	1.002
17	562	1.69899475811	1.002
17	567	1.71899475811	1.002
17	569	1.73899475811	1.002
17	612	1.75899475811	1.002
17	627	1.77899475811	1.002
17	642	1.79899475811	1.002
17	647	1.81899475811	1.002
17	649	1.83899475811	1.002
17	692	1.85899475811	1.002
17	707	1.87899475811	1.002
17	722	1.89899475811	1.002
17	727	1.91899475811	1.002
17	729	1.93899475811	1.002
17	772	1.95899475811	1.002
17	787	1.97899475811	1.002
17	802	1.99899475811	1.002
17	807	2.01899475811	1.002
17	809	2.03899475811	1.002
17	852	2.05899475811	1.002
17	867	2.07899475811	1.002
17	882	2.09899475811	1.002
17	887	2.11899475811	1.002
17	889	2.13899475811	1.002
17	932	2.15899475811	1.002
17	947	2.17899475811	1.002
17	962	2.19899475811	1.002
17	967	2.21899475811	1.002
17	969	2.23899475811	1.002
17	1012	2.25899475811	1.002
17	1027	2.27899475811	1.002
17	1042	2.29899475811	1.002
17	1047	2.31899475811	1.002
17	1049	2.33899475811	1.002
17	1092	2.35899475811	1.002
17	1107	2.37899475811	1.002
17	1122	2.39899475811	1.002
17	1127	2.41899475811	1.002
17	1129	2.43899475811	1.002
17	1172	2.45899475811	1.002
17	1187	2.47899475811	1.002
17	1202	2.49899475811	1.002
17	1207	2.51899475811	1.002
17	1209	2.53899475811	1.002
17	1252	2.55899475811	1.002
17	1267	2.57899475811	1.002
17	1282	2.59899475811	1.002
17	1287	2.61899475811	1.002
17	1289	2.63899475811	1.002
17	1332	2.65899475811	1.002
17	1347	2.67899475811	1.002
17	1362	2.69899475811	1.002
17	1367	2.71899475811	1.002
17	1369	2.73899475811	1.002
17	1412	2.75899475811	1.002
17	1427	2.77899475811	1.002
17	1442	2.79899475811	1.002
17	1447	2.81899475811	1.002
17	1449	2.83899475811	1.002
17	1492	2.85899475811	1.002
17	1507	2.87899475811	1.002
17	1522	2.89899475811	1.002
17	1527	2.91899475811	1.002
17	1529	2.93899475811	1.002
17	1572	2.95899475811	1.002
17	1587	2.97899475811	1.002
17	1602	2.99899475811	1.002
17	1607	3.01899475811	1.002
17	1609	3.03899475811	1.002
17	1652	3.05899475811	1.002
17	1667	3.07899475811	1.002
17	1682	3.09899475811	1.002
17	1687	3.11899475811	1.002
17	1689	3.13899475811	1.002
17	1751	3.15899475811	1.002
17	1772	3.17899475811	1.002
17	1793	3.19899475811	1.002
17	1799	3.21899475811	1.002
17	1803	3.23899475811	1.002
17	1898	3.25899475811	1.002
17	1940	3.27899475811	1.002
17	1982	3.29899475811	1.002
17	1990	3.31899475811	1.002
17	1994	3.33899475811	1.002
17	2108	3.35899475811	1.002
17	2150	3.37899475811	1.002
17	2192	3.39899475811	1.002
17	2200	3.41899475811	1.002
17	2204	3.43899475811	1.002
17	2318	3.45899475811	1.002
17	2360	3.47899475811	1.002
17	2402	3.49899475811	1.002
17	2410	3.51899475811	1.002
17	2414	3.53899475811	1.002
17	2528	3.55899475811	1.002
17	2570	3.57899475811	1.002
17	2612	3.59899475811	1.002
17	2620	3.61899475811	1.002
17	2624	3.63899475811	1.002
17	2745	3.65899475811	1.002
17	2787	3.67899475811	1.002
17	2829	3.69899475811	1.002
17	2837	3.71899475811	1.002
17	2841	3.73899475811	1.002
17	2962	3.75899475811	1.002
17	3004	3.77899475811	1.002
17	3046	3.79899475811	1.002
17	3054	3.81899475811	1.002
17	3058	3.83899475811	1.002
17	3172	3.85899475811	1.002
17	3214	3.87899475811	1.002
17	3256	3.89899475811	1.002
17	3264	3.91899475811	1.002
17	3268	3.93899475811	1.002
17	3375	3.95899475811	1.002
17	3417	3.97899475811	1.002
17	3459	3.99899475811	1.002
17	3467	4.01899475811	1.002
17	3471	4.03899475811	1.002
17	3585	4.05899475811	1.002
17	3627	4.07899475811	1.002
17	3669	4.09899475811	1.002
17	3677	4.11899475811	1.002
17	3681	4.13899475811	1.002
17	3802	4.15899475811	1.002
17	3844	4.17899475811	1.002
17	3886	4.19899475811	1.002
17	3894	4.21899475811	1.002
17	3898	4.23899475811	1.002
17	4012	4.25899475811	1.002
17	4054	4.27899475811	1.002
17	4096	4.29899475811	1.002
17	4104	4.31899475811	1.002
17	4108	4.33899475811	1.002
17	4229	4.35899475811	1.002
17	4271	4.37899475811	1.002
17	4313	4.39899475811	1.002
17	4321	4.41899475811	1.002
17	4325	4.43899475811	1.002
17	4446	4.45899475811	1.002
17	4488	4.47899475811	1.002
17	4530	4.49899475811	1.002
17	4538	4.51899475811	1.002
17	4542	4.53899475811	1.002
17	4663	4.55899475811	1.002
17	4705	4.57899475811	1.002
17	4747	4.59899475811	1.002
17	4755	4.61899475811	1.002
17	4759	4.63899475811	1.002
17	4873	4.65899475811	1.002
17	4915	4.67899475811	1.002
17	4957	4.69899475811	1.002
17	4965	4.71899475811	1.002
17	4969	4.73899475811	1.002
17	5090	4.75899475811	1.002
17	5132	4.77899475811	1.002
17	5174	4.79899475811	1.002
17	5182	4.81899475811	1.002
17	5186	4.83899475811	1.002
17	5300	4.85899475811	1.002
17	5342	4.87899475811	1.002
17	5384	4.89899475811	1.002
17	5392	4.91899475811	1.002
17	5396	4.93899475811	1.002
17	5503	4.95899475811	1.002
17	5545	4.97899475811	1.002
17	5587	4.99899475811	1.002
17	5595	5.01899475811	1.002
17	5599	5.03899475811	1.002
17	5706	5.05899475811	1.002
17	5748	5.07899475811	1.002
17	5790	5.09899475811	1.002
17	5798	5.11899475811	1.002
17	5802	5.13899475811	1.002
17	5923	5.15899475811	1.002
17	5965	5.17899475811	1.002
17	6007	5.19899475811	1.002
17	6015	5.21899475811	1.002
17	6019	5.23899475811	1.002
17	6133	5.25899475811	1.002
17	6175	5.27899475811	1.002
17	6217	5.29899475811	1.002
17	6225	5.31899475811	1.002
17	6229	5.33899475811	1.002
17	6350	5.35899475811	1.002
17	6392	5.37899475811	1.002
17	6434	5.39899475811	1.002
17	6442	5.41899475811	1.002
17	6446	5.43899475811	1.002
17	6560	5.45899475811	1.002
17	6602	5.47899475811	1.002
17	6644	5.49899475811	1.002
17	6652	5.51899475811	1.002
17	6656	5.53899475811	1.002
17	6777	5.55899475811	1.002
17	6819	5.57899475811	1.002
17	6861	5.59899475811	1.002
17	6869	5.61899475811	1.002
17	6873	5.63899475811	1.002
17	6987	5.65899475811	1.002
17	7029	5.67899475811	1.002
17	7071	5.69899475811	1.002
17	7079	5.71899475811	1.002
17	7083	5.73899475811	1.002
17	7197	5.75899475811	1.002
17	7239	5.77899475811	1.002
17	7281	5.79899475811	1.002
17	7289	5.81899475811	1.002
17	7293	5.83899475811	1.002
17	7414	5.85899475811	1.002
17	7456	5.87899475811	1.002
17	7498	5.89899475811	1.002
17	7506	5.91899475811	1.002
17	7510	5.93899475811	1.002
17	7624	5.95899475811	1.002
17	7666	5.97899475811	1.002
17	7708	5.99899475811	1.002
17	7716	6.01899475811	1.002
17	7720	6.03899475811	1.002
17	7834	6.05899475811	1.002
17	7876	6.07899475811	1.002
17	7918	6.09899475811	1.002
17	7926	6.11899475811	1.002
17	7930	6.13899475811	1.002
17	8078	6.15899475811	1.002
17	8132	6.17899475811	1.002
17	8186	6.19899475811	1.002
17	8195	6.21899475811	1.002
17	8199	6.23899475811	1.002
17	8347	6.25899475811	1.002
17	8401	6.27899475811	1.002
17	8455	6.29899475811	1.002
17	8464	6.31899475811	1.002
17	8468	6.33899475811	1.002
17	8626	6.35899475811	1.002
17	8680	6.37899475811	1.002
17	8734	6.39899475811	1.002
17	8743	6.41899475811	1.002
17	8747	6.43899475811	1.002
17	8895	6.45899475811	1.002
17	8949	6.47899475811	1.002
17	9003	6.49899475811	1.002
17	9012	6.51899475811	1.002
17	9016	6.53899475811	1.002
17	9174	6.55899475811	1.002
17	9228	6.57899475811	1.002
17	9282	6.59899475811	1.002
17	9291	6.61899475811	1.002
17	9295	6.63899475811	1.002
17	9453	6.65899475811	1.002
17	9507	6.67899475811	1.002
17	9561	6.69899475811	1.002
17	9570	6.71899475811	1.002
17	9576	6.73899475811	1.002
17	9776	6.75899475811	1.002
17	9857	6.77899475811	1.002
17	9938	6.79899475811	1.002
17	9949	6.81899475811	1.002
17	9955	6.83899475811	1.002
17	10160	6.85899475811	1.002
17	10241	6.87899475811	1.002
17	10322	6.89899475811	1.002
17	10333	6.91899475811	1.002
17	10339	6.93899475811	1.002
17	10554	6.95899475811	1.002
17	10635	6.97899475811	1.002
17	10716	6.99899475811	1.002
17	10727	7.01899475811	1.002
17	10733	7.03899475811	1.002
17	10938	7.05899475811	1.002
17	11019	7.07899475811	1.002
17	11100	7.09899475811	1.002
17	11111	7.11899475811	1.002
17	11117	7.13899475811	1.002
17	11325	7.15899475811	1.002
17	11406	7.17899475811	1.002
17	11487	7.19899475811	1.002
17	11498	7.21899475811	1.002
17	11504	7.23899475811	1.002
17	11722	7.25899475811	1.002
17	11803	7.27899475811	1.002
17	11884	7.29899475811	1.002
17	11895	7.31899475811	1.002
17	11901	7.33899475811	1.002
17	12116	7.35899475811	1.002
17	12197	7.37899475811	1.002
17	12278	7.39899475811	1.002
17	12289	7.41899475811	1.002
17	12295	7.43899475811	1.002
17	12510	7.45899475811	1.002
17	12591	7.47899475811	1.002
17	12672	7.49899475811	1.002
17	12683	7.51899475811	1.002
17	12689	7.53899475811	1.002
17	12897	7.55899475811	1.002
17	12978	7.57899475811	1.002
17	13059	7.59899475811	1.002
17	13070	7.61899475811	1.002
17	13076	7.63899475811	1.002
17	13301	7.65899475811	1.002
17	13382	7.67899475811	1.002
17	13463	7.69899475811	1.002
17	13474	7.71899475811	1.002
17	13480	7.73899475811	1.002
17	13705	7.75899475811	1.002
17	13786	7.77899475811	1.002
17	13867	7.79899475811	1.002
17	13878	7.81899475811	1.002
17	13884	7.83899475811	1.002
17	14109	7.85899475811	1.002
17	14190	7.87899475811	1.002
17	14271	7.89899475811	1.002
17	14282	7.91899475811	1.002
17	14288	7.93899475811	1.002
17	14493	7.95899475811	1.002
17	14574	7.97899475811	1.002
17	14655	7.99899475811	1.002
17	14666	8.01899475811	1.002
17	14672	8.03899475811	1.002
17	14887	8.05899475811	1.002
17	14968	8.07899475811	1.002
17	15049	8.09899475811	1.002
17	15060	8.11899475811	1.002
17	15066	8.13899475811	1.002
17	15281	8.15899475811	1.002
17	15362	8.17899475811	1.002
17	15443	8.19899475811	1.002
17	15454	8.21899475811	1.002
17	15460	8.23899475811	1.002
17	15678	8.25899475811	1.002
17	15759	8.27899475811	1.002
17	15840	8.29899475811	1.002
17	15851	8.31899475811	1.002
17	15857	8.33899475811	1.002
17	16072	8.35899475811	1.002
17	16153	8.37899475811	1.002
17	16234	8.39899475811	1.002
17	16245	8.41899475811	1.002
17	16251	8.43899475811	1.002
17	16486	8.45899475811	1.002
17	16567	8.47899475811	1.002
17	16648	8.49899475811	1.002
17	16659	8.51899475811	1.002
17	16665	8.53899475811	1.002
17	16866	8.55899475811	1.002
17	16947	8.57899475811	1.002
17	17028	8.59899475811	1.002
17	17039	8.61899475811	1.002
17	17045	8.63899475811	1.002
17	17260	8.65899475811	1.002
17	17341	8.67899475811	1.002
17	17422	8.69899475811	1.002
17	17433	8.71899475811	1.002
17	17439	8.73899475811	1.002
17	17644	8.75899475811	1.002
17	17725	8.77899475811	1.002
17	17806	8.79899475811	1.002
17	17817	8.81899475811	1.002
17	17823	8.83899475811	1.002
17	18041	8.85899475811	1.002
17	18122	8.87899475811	1.002
17	18203	8.89899475811	1.002
17	18214	8.91899475811	1.002
17	18220	8.93899475811	1.002
17	18425	8.95899475811	1.002
17	18506	8.97899475811	1.002
17	18587	8.99899475811	1.002
17	18598	9.01899475811	1.002
17	18604	9.03899475811	1.002
17	18829	9.05899475811	1.002
17	18910	9.07899475811	1.002
17	18991	9.09899475811	1.002
17	19002	9.11899475811	1.002
17	19008	9.13899475811	1.002
17	19264	9.15899475811	1.002
17	19363	9.17899475811	1.002
17	19462	9.19899475811	1.002
17	19474	9.21899475811	1.002
17	19480	9.23899475811	1.002
17	19744	9.25899475811	1.002
17	19843	9.27899475811	1.002
17	19942	9.29899475811	1.002
17	19954	9.31899475811	1.002
17	19960	9.33899475811	1.002
17	20211	9.35899475811	1.002
17	20310	9.37899475811	1.002
17	20409	9.39899475811	1.002
17	20421	9.41899475811	1.002
17	20427	9.43899475811	1.002
17	20691	9.45899475811	1.002
17	20790	9.47899475811	1.002
17	20889	9.49899475811	1.002
17	20901	9.51899475811	1.002
17	20907	9.53899475811	1.002
17	21171	9.55899475811	1.002
17	21270	9.57899475811	1.002
17	21369	9.59899475811	1.002
17	21381	9.61899475811	1.002
17	21387	9.63899475811	1.002
17	21640	9.65899475811	1.002
17	21772	9.67899475811	1.002
17	21904	9.69899475811	1.002
17	21918	9.71899475811	1.002
17	21926	9.73899475811	1.002
17	22254	9.75899475811	1.002
17	22386	9.77899475811	1.002
17	22518	9.79899475811	1.002
17	22532	9.81899475811	1.002
17	22540	9.83899475811	1.002
17	22873	9.85899475811	1.002
17	23005	9.87899475811	1.002
17	23137	9.89899475811	1.002
17	23151	9.91899475811	1.002
17	23159	9.93899475811	1.002
17	23492	9.95899475811	1.002
17	23624	9.97899475811	1.002
17	23756	9.99899475811	1.002
17	23770	10.01899475811	1.002
17	23778	10.03899475811	1.002
17	24102	10.05899475811	1.002
17	24234	10.07899475811	1.002
17	24366	10.09899475811	1.002
17	24380	10.11899475811	1.002
17	24388	10.13899475811	1.002
17	24738	10.15899475811	1.002
17	24870	10.17899475811	1.002
17	25002	10.19899475811	1.002
17	25016	10.21899475811	1.002
17	25024	10.23899475811	1.002
17	25370	10.25899475811	1.002
17	25502	10.27899475811	1.002
17	25634	10.29899475811	1.002
17	25648	10.31899475811	1.002
17	25656	10.33899475811	1.002
17	25990	10.35899475811	1.002
17	26122	10.37899475811	1.002
17	26254	10.39899475811	1.002
17	26268	10.41899475811	1.002
17	26276	10.43899475811	1.002
17	26623	10.45899475811	1.002
17	26755	10.47899475811	1.002
17	26887	10.49899475811	1.002
17	26901	10.51899475811	1.002
17	26909	10.53899475811	1.002
17	27242	10.55899475811	1.002
17	27374	10.57899475811	1.002
17	27506	10.59899475811	1.002
17	27520	10.61899475811	1.002
17	27528	10.63899475811	1.002
17	27869	10.65899475811	1.002
17	28001	10.67899475811	1.002
17	28133	10.69899475811	1.002
17	28147	10.71899475811	1.002
17	28155	10.73899475811	1.002
17	28496	10.75899475811	1.002
17	28628	10.77899475811	1.002
17	28760	10.79899475811	1.002
17	28774	10.81899475811	1.002
17	28782	10.83899475811	1.002
17	29119	10.85899475811	1.002
17	29251	10.87899475811	1.002
17	29383	10.89899475811	1.002
17	29397	10.91899475811	1.002
17	29405	10.93899475811	1.002
17	29751	10.95899475811	1.002
17	29883	10.97899475811	1.002
17	30015	10.99899475811	1.002
17	30029	11.01899475811	1.002
17	30037	11.03899475811	1.002
17	30370	11.05899475811	1.002
17	30502	11.07899475811	1.002
17	30634	11.09899475811	1.002
17	30648	11.11899475811	1.002
17	30656	11.13899475811	1.002
17	30993	11.15899475811	1.002
17	31125	11.17899475811	1.002
17	31257	11.19899475811	1.002
17	31271	11.21899475811	1.002
17	31279	11.23899475811	1.002
17	31603	11.25899475811	1.002
17	31735	11.27899475811	1.002
17	31867	11.29899475811	1.002
17	31881	11.31899475811	1.002
17	31889	11.33899475811	1.002
17	32239	11.35899475811	1.002
17	32371	11.37899475811	1.002
17	32503	11.39899475811	1.002
17	32517	11.41899475811	1.002
17	32525	11.43899475811	1.002
17	32844	11.45899475811	1.002
17	32976	11.47899475811	1.002
17	33108	11.49899475811	1.002
17	33122	11.51899475811	1.002
17	33130	11.53899475811	1.002
17	33476	11.55899475811	1.002
17	33608	11.57899475811	1.002
17	33740	11.59899475811	1.002
17	33754	11.61899475811	1.002
17	33762	11.63899475811	1.002
17	34090	11.65899475811	1.002
17	34222	11.67899475811	1.002
17	34354	11.69899475811	1.002
17	34368	11.71899475811	1.002
17	34376	11.73899475811	1.002
17	34722	11.75899475811	1.002
17	34854	11.77899475811	1.002
17	34986	11.79899475811	1.002
17	35000	11.81899475811	1.002
17	35008	11.83899475811	1.002
17	35341	11.85899475811	1.002
17	35473	11.87899475811	1.002
17	35605	11.89899475811	1.002
17	35619	11.91899475811	1.002
17	35627	11.93899475811	1.002
17	35973	11.95899475811	1.002
17	36105	11.97899475811	1.002
17	36237	11.99899475811	1.002
17	36251	12.01899475811	1.002
17	36259	12.03899475811	1.002
17	36592	12.05899475811	1.002
17	36724	12.07899475811	1.002
17	36856	12.09899475811	1.002
17	36870	12.11899475811	1.002
17	36878	12.13899475811	1.002
17	37301	12.15899475811	1.002
17	37496	12.17899475811	1.002
17	37691	12.19899475811	1.002
17	37708	12.21899475811	1.002
17	37718	12.23899475811	1.002
17	38179	12.25899475811	1.002
17	38374	12.27899475811	1.002
17	38569	12.29899475811	1.002
17	38586	12.31899475811	1.002
17	38596	12.33899475811	1.002
17	39059	12.35899475811	1.002
17	39254	12.37899475811	1.002
17	39449	12.39899475811	1.002
17	39466	12.41899475811	1.002
17	39476	12.43899475811	1.002
17	39951	12.45899475811	1.002
17	40146	12.47899475811	1.002
17	40341	12.49899475811	1.002
17	40358	12.51899475811	1.002
17	40368	12.53899475811	1.002
17	40859	12.55899475811	1.002
17	41054	12.57899475811	1.002
17	41249	12.59899475811	1.002
17	41266	12.61899475811	1.002
17	41276	12.63899475811	1.002
17	41773	12.65899475811	1.002
17	41968	12.67899475811	1.002
17	42163	12.69899475811	1.002
17	42180	12.71899475811	1.002
17	42190	12.73899475811	1.002
17	42680	12.75899475811	1.002
17	42875	12.77899475811	1.002
17	43070	12.79899475811	1.002
17	43087	12.81899475811	1.002
17	43097	12.83899475811	1.002
17	43549	12.85899475811	1.002
17	43744	12.87899475811	1.002
17	43939	12.89899475811	1.002
17	43956	12.91899475811	1.002
17	43966	12.93899475811	1.002
17	44435	12.95899475811	1.002
17	44630	12.97899475811	1.002
17	44825	12.99899475811	1.002
17	44842	13.01899475811	1.002
17	44852	13.03899475811	1.002
17	45342	13.05899475811	1.002
17	45537	13.07899475811	1.002
17	45732	13.09899475811	1.002
17	45749	13.11899475811	1.002
17	45759	13.13899475811	1.002
17	46217	13.15899475811	1.002
17	46412	13.17899475811	1.002
17	46607	13.19899475811	1.002
17	46624	13.21899475811	1.002
17	46634	13.23899475811	1.002
17	47124	13.25899475811	1.002
17	47319	13.27899475811	1.002
17	47514	13.29899475811	1.002
17	47531	13.31899475811	1.002
17	47541	13.33899475811	1.002
17	48037	13.35899475811	1.002
17	48232	13.37899475811	1.002
17	48427	13.39899475811	1.002
17	48444	13.41899475811	1.002
17	48454	13.43899475811	1.002
17	48923	13.45899475811	1.002
17	49118	13.47899475811	1.002
17	49313	13.49899475811	1.002
17	49330	13.51899475811	1.002
17	49340	13.53899475811	1.002
17	49815	13.55899475811	1.002
17	50010	13.57899475811	1.002
17	50205	13.59899475811	1.002
17	50222	13.61899475811	1.002
17	50232	13.63899475811	1.002
17	50690	13.65899475811	1.002
17	50885	13.67899475811	1.002
17	51080	13.69899475811	1.002
17	51097	13.71899475811	1.002
17	51107	13.73899475811	1.002
17	51587	13.75899475811	1.002
17	51782	13.77899475811	1.002
17	51977	13.79899475811	1.002
17	51994	13.81899475811	1.002
17	52004	13.83899475811	1.002
17	52489	13.85899475811	1.002
17	52684	13.87899475811	1.002
17	52879	13.89899475811	1.002
17	52896	13.91899475811	1.002
17	52906	13.93899475811	1.002
17	53402	13.95899475811	1.002
17	53597	13.97899475811	1.002
17	53792	13.99899475811	1.002
17	53809	14.01899475811	1.002
17	53819	14.03899475811	1.002
17	54294	14.05899475811	1.002
17	54489	14.07899475811	1.002
17	54684	14.09899475811	1.002
17	54701	14.11899475811	1.002
17	54711	14.13899475811	1.002
17	55169	14.15899475811	1.002
17	55364	14.17899475811	1.002
17	55559	14.19899475811	1.002
17	55576	14.21899475811	1.002
17	55586	14.23899475811	1.002
17	56072	14.25899475811	1.002
17	56267	14.27899475811	1.002
17	56462	14.29899475811	1.002
17	56479	14.31899475811	1.002
17	56489	14.33899475811	1.002
17	56958	14.35899475811	1.002
17	57153	14.37899475811	1.002
17	57348	14.39899475811	1.002
17	57365	14.41899475811	1.002
17	57375	14.43899475811	1.002
17	57871	14.45899475811	1.002
17	58066	14.47899475811	1.002
17	58261	14.49899475811	1.002
17	58278	14.51899475811	1.002
17	58288	14.53899475811	1.002
17	58762	14.55899475811	1.002
17	58957	14.57899475811	1.002
17	59152	14.59899475811	1.002
17	59169	14.61899475811	1.002
17	59179	14.63899475811	1.002
17	59680	14.65899475811	1.002
17	59875	14.67899475811	1.002
17	60070	14.69899475811	1.002
17	60087	14.71899475811	1.002
17	60097	14.73899475811	1.002
17	60571	14.75899475811	1.002
17	60766	14.77899475811	1.002
17	60961	14.79899475811	1.002
17	60978	14.81899475811	1.002
17	60988	14.83899475811	1.002
17	61462	14.85899475811	1.002
17	61657	14.87899475811	1.002
17	61852	14.89899475811	1.002
17	61869	14.91899475811	1.002
17	61879	14.93899475811	1.002
17	62375	14.95899475811	1.002
17	62570	14.97899475811	1.002
17	62765	14.99899475811	1.002
17	62782	15.01899475811	1.002
17	62792	15.03899475811	1.002
17	63272	15.05899475811	1.002
17	63467	15.07899475811	1.002
17	63662	15.09899475811	1.002
17	63679	15.11899475811	1.002
17	63689	15.13899475811	1.002
17	64158	15.15899475811	1.002
17	64353	15.17899475811	1.002
17	64548	15.19899475811	1.002
17	64565	15.21899475811	1.002
17	64575	15.23899475811	1.002
17	65044	15.25899475811	1.002
17	65239	15.27899475811	1.002
17	65434	15.29899475811	1.002
17	65451	15.31899475811	1.002
17	65461	15.33899475811	1.002
17	65941	15.35899475811	1.002
17	66136	15.37899475811	1.002
17	66331	15.39899475811	1.002
17	66348	15.41899475811	1.002
17	66358	15.43899475811	1.002
17	66838	15.45899475811	1.002
17	67033	15.47899475811	1.002
17	67228	15.49899475811	1.002
17	67245	15.51899475811	1.002
17	67255	15.53899475811	1.002
17	67724	15.55899475811	1.002
17	67919	15.57899475811	1.002
17	68114	15.59899475811	1.002
17	68131	15.61899475811	1.002
17	68141	15.63899475811	1.002
17	68626	15.65899475811	1.002
17	68821	15.67899475811	1.002
17	69016	15.69899475811	1.002
17	69033	15.71899475811	1.002
17	69043	15.73899475811	1.002
17	69501	15.75899475811	1.002
17	69696	15.77899475811	1.002
17	69891	15.79899475811	1.002
17	69908	15.81899475811	1.002
17	69918	15.83899475811	1.002
17	70376	15.85899475811	1.002
17	70571	15.87899475811	1.002
17	70766	15.89899475811	1.002
17	70783	15.91899475811	1.002
17	70793	15.93899475811	1.002
17	71262	15.95899475811	1.002
17	71457	15.97899475811	1.002
17	71652	15.99899475811	1.002
17	71669	16.01899475811	1.002
17	71679	16.03899475811	1.002
17	72148	16.05899475811	1.002
17	72343	16.07899475811	1.002
17	72538	16.09899475811	1.002
17	72555	16.11899475811	1.002
17	72565	16.13899475811	1.002
17	73044	16.15899475811	1.002
17	73239	16.17899475811	1.002
17	73434	16.19899475811	1.002
17	73451	16.21899475811	1.002
17	73461	16.23899475811	1.002
17	73941	16.25899475811	1.002
17	74136	16.27899475811	1.002
17	74331	16.29899475811	1.002
17	74348	16.31899475811	1.002
17	74358	16.33899475811	1.002
17	74821	16.35899475811	1.002
17	75016	16.37899475811	1.002
17	75211	16.39899475811	1.002
17	75228	16.41899475811	1.002
17	75238	16.43899475811	1.002
17	75718	16.45899475811	1.002
17	75913	16.47899475811	1.002
17	76108	16.49899475811	1.002
17	76125	16.51899475811	1.002
17	76135	16.53899475811	1.002
17	76615	16.55899475811	1.002
17	76810	16.57899475811	1.002
17	77005	16.59899475811	1.002
17	77022	16.61899475811	1.002
17	77032	16.63899475811	1.002
17	77490	16.65899475811	1.002
17	77685	16.67899475811	1.002
17	77880	16.69899475811	1.002
17	77897	16.71899475811	1.002
17	77907	16.73899475811	1.002
17	78392	16.75899475811	1.002
17	78587	16.77899475811	1.002
17	78782	16.79899475811	1.002
17	78799	16.81899475811	1.002
17	78809	16.83899475811	1.002
17	79283	16.85899475811	1.002
17	79478	16.87899475811	1.002
17	79673	16.89899475811	1.002
17	79690	16.91899475811	1.002
17	79700	16.93899475811	1.002
17	80169	16.95899475811	1.002
17	80364	16.97899475811	1.002
17	80559	16.99899475811	1.002
17	80576	17.01899475811	1.002
17	80586	17.03899475811	1.002
17	81087	17.05899475811	1.002
17	81282	17.07899475811	1.002
17	81477	17.09899475811	1.002
17	81494	17.11899475811	1.002
17	81504	17.13899475811	1.002
17	81978	17.15899475811	1.002
17	82173	17.17899475811	1.002
17	82368	17.19899475811	1.002
17	82385	17.21899475811	1.002
17	82395	17.23899475811	1.002
17	82853	17.25899475811	1.002
17	83048	17.27899475811	1.002
17	83243	17.29899475811	1.002
17	83260	17.31899475811	1.002
17	83270	17.33899475811	1.002
17	83761	17.35899475811	1.002
17	83956	17.37899475811	1.002
17	84151	17.39899475811	1.002
17	84168	17.41899475811	1.002
17	84178	17.43899475811	1.002
17	84658	17.45899475811	1.002
17	84853	17.47899475811	1.002
17	85048	17.49899475811	1.002
17	85065	17.51899475811	1.002
17	85075	17.53899475811	1.002
17	85566	17.55899475811	1.002
17	85761	17.57899475811	1.002
17	85956	17.59899475811	1.002
17	85973	17.61899475811	1.002
17	85983	17.63899475811	1.002
17	86479	17.65899475811	1.002
17	86674	17.67899475811	1.002
17	86869	17.69899475811	1.002
17	86886	17.71899475811	1.002
17	86896	17.73899475811	1.002
17	87381	17.75899475811	1.002
17	87576	17.77899475811	1.002
17	87771	17.79899475811	1.002
17	87788	17.81899475811	1.002
17	87798	17.83899475811	1.002
17	88267	17.85899475811	1.002
17	88462	17.87899475811	1.002
17	88657	17.89899475811	1.002
17	88674	17.91899475811	1.002
17	88684	17.93899475811	1.002
17	89153	17.95899475811	1.002
17	89348	17.97899475811	1.002
17	89543	17.99899475811	1.002
17	89560	18.01899475811	1.002
17	89570	18.03899475811	1.002
17	90055	18.05899475811	1.002
17	90250	18.07899475811	1.002
17	90445	18.09899475811	1.002
17	90462	18.11899475811	1.002
17	90472	18.13899475811	1.002
17	90962	18.15899475811	1.002
17	91157	18.17899475811	1.002
17	91352	18.19899475811	1.002
17	91369	18.21899475811	1.002
17	91379	18.23899475811	1.002
17	91848	18.25899475811	1.002
17	92043	18.27899475811	1.002
17	92238	18.29899475811	1.002
17	92255	18.31899475811	1.002
17	92265	18.33899475811	1.002
17	92761	18.35899475811	1.002
17	92956	18.37899475811	1.002
17	93151	18.39899475811	1.002
17	93168	18.41899475811	1.002
17	93178	18.43899475811	1.002
17	93657	18.45899475811	1.002
17	93852	18.47899475811	1.002
17	94047	18.49899475811	1.002
17	94064	18.51899475811	1.002
17	94074	18.53899475811	1.002
17	94575	18.55899475811	1.002
17	94770	18.57899475811	1.002
17	94965	18.59899475811	1.002
17	94982	18.61899475811	1.002
17	94992	18.63899475811	1.002
17	95450	18.65899475811	1.002
17	95645	18.67899475811	1.002
17	95840	18.69899475811	1.002
17	95857	18.71899475811	1.002
17	95867	18.73899475811	1.002
17	96347	18.75899475811	1.002
17	96542	18.77899475811	1.002
17	96737	18.79899475811	1.002
17	96754	18.81899475811	1.002
17	96764	18.83899475811	1.002
17	97276	18.85899475811	1.002
17	97471	18.87899475811	1.002
17	97666	18.89899475811	1.002
17	97683	18.91899475811	1.002
17	97693	18.93899475811	1.002
17	98162	18.95899475811	1.002
17	98357	18.97899475811	1.002
17	98552	18.99899475811	1.002
17	98569	19.01899475811	1.002
17	98579	19.03899475811	1.002
17	99075	19.05899475811	1.002
17	99270	19.07899475811	1.002
17	99465	19.09899475811	1.002
17	99482	19.11899475811	1.002
17	99492	19.13899475811	1.002
17	99993	19.15899475811	1.002
17	100188	19.17899475811	1.002
17	100383	19.19899475811	1.002
17	100400	19.21899475811	1.002
17	100410	19.23899475811	1.002
17	100890	19.25899475811	1.002
17	101085	19.27899475811	1.002
17	101280	19.29899475811	1.002
17	101297	19.31899475811	1.002
17	101307	19.33899475811	1.002
17	101781	19.35899475811	1.002
17	101976	19.37899475811	1.002
17	102171	19.39899475811	1.002
17	102188	19.41899475811	1.002
17	102198	19.43899475811	1.002
17	102667	19.45899475811	1.002
17	102862	19.47899475811	1.002
17	103057	19.49899475811	1.002
17	103074	19.51899475811	1.002
17	103084	19.53899475811	1.002
17	103548	19.55899475811	1.002
17	103743	19.57899475811	1.002
17	103938	19.59899475811	1.002
17	103955	19.61899475811	1.002
17	103965	19.63899475811	1.002
17	104445	19.65899475811	1.002
17	104640	19.67899475811	1.002
17	104835	19.69899475811	1.002
17	104852	19.71899475811	1.002
17	104862	19.73899475811	1.002
17	105342	19.75899475811	1.002
17	105537	19.77899475811	1.002
17	105732	19.79899475811	1.002
17	105749	19.81899475811	1.002
17	105759	19.83899475811	1.002
17	106233	19.85899475811	1.002
17	106428	19.87899475811	1.002
17	106623	19.89899475811	1.002
17	106640	19.91899475811	1.002
17	106650	19.93899475811	1.002
17	107114	19.95899475811	1.002
17	107309	19.97899475811	1.002
17	107504	19.99899475811	1.002
17	107521	20.01899475811	1.002
17	107531	20.03899475811	1.002
17	108022	20.05899475811	1.002
17	108217	20.07899475811	1.002
17	108412	20.09899475811	1.002
17	108429	20.11899475811	1.002
17	108439	20.13899475811	1.002
17	108913	20.15899475811	1.002
17	109108	20.17899475811	1.002
17	109303	20.19899475811	1.002
17	109320	20.21899475811	1.002
17	109330	20.23899475811	1.002
17	109804	20.25899475811	1.002
17	109999	20.27899475811	1.002
17	110194	20.29899475811	1.002
17	110211	20.31899475811	1.002
17	110221	20.33899475811	1.002
17	110717	20.35899475811	1.002
17	110912	20.37899475811	1.002
17	111107	20.39899475811	1.002
17	111124	20.41899475811	1.002
17	111134	20.43899475811	1.002
17	111602	20.45899475811	1.002
17	111797	20.47899475811	1.002
17	111992	20.49899475811	1.002
17	112009	20.51899475811	1.002
17	112019	20.53899475811	1.002
17	112504	20.55899475811	1.002
17	112699	20.57899475811	1.002
17	112894	20.59899475811	1.002
17	112911	20.61899475811	1.002
17	112921	20.63899475811	1.002
17	113433	20.65899475811	1.002
17	113628	20.67899475811	1.002
17	113823	20.69899475811	1.002
17	113840	20.71899475811	1.002
17	113850	20.73899475811	1.002
17	114335	20.75899475811	1.002
17	114530	20.77899475811	1.002
17	114725	20.79899475811	1.002
17	114742	20.81899475811	1.002
17	114752	20.83899475811	1.002
17	115226	20.85899475811	1.002
17	115421	20.87899475811	1.002
17	115616	20.89899475811	1.002
17	115633	20.91899475811	1.002
17	115643	20.93899475811	1.002
17	116117	20.95899475811	1.002
17	116312	20.97899475811	1.002
17	116507	20.99899475811	1.002
17	116524	21.01899475811	1.002
17	116534	21.03899475811	1.002
17	117014	21.05899475811	1.002
17	117209	21.07899475811	1.002
17	117404	21.09899475811	1.002
17	117421	21.11899475811	1.002
17	117431	21.13899475811	1.002
17	117916	21.15899475811	1.002
17	118111	21.17899475811	1.002
17	118306	21.19899475811	1.002
17	118323	21.21899475811	1.002
17	118333	21.23899475811	1.002
17	118829	21.25899475811	1.002
17	119024	21.27899475811	1.002
17	119219	21.29899475811	1.002
17	119236	21.31899475811	1.002
17	119246	21.33899475811	1.002
17	119731	21.35899475811	1.002
17	119926	21.37899475811	1.002
17	120121	21.39899475811	1.002
17	120138	21.41899475811	1.002
17	120148	21.43899475811	1.002
17	120633	21.45899475811	1.002
17	120828	21.47899475811	1.002
17	121023	21.49899475811	1.002
17	121040	21.51899475811	1.002
17	121050	21.53899475811	1.002
17	121530	21.55899475811	1.002
17	121725	21.57899475811	1.002
17	121920	21.59899475811	1.002
17	121937	21.61899475811	1.002
17	121947	21.63899475811	1.002
17	122443	21.65899475811	1.002
17	122638	21.67899475811	1.002
17	122833	21.69899475811	1.002
17	122850	21.71899475811	1.002
17	122860	21.73899475811	1.002
17	123339	21.75899475811	1.002
17	123534	21.77899475811	1.002
17	123729	21.79899475811	1.002
17	123746	21.81899475811	1.002
17	123756	21.83899475811	1.002
17	124247	21.85899475811	1.002
17	124442	21.87899475811	1.002
17	124637	21.89899475811	1.002
17	124654	21.91899475811	1.002
17	124664	21.93899475811	1.002
17	125149	21.95899475811	1.002
17	125344	21.97899475811	1.002
17	125539	21.99899475811	1.002
17	125556	22.01899475811	1.002
17	125566	22.03899475811	1.002
17	126072	22.05899475811	1.002
17	126267	22.07899475811	1.002
17	126462	22.09899475811	1.002
17	126479	22.11899475811	1.002
17	126489	22.13899475811	1.002
17	126963	22.15899475811	1.002
17	127158	22.17899475811	1.002
17	127353	22.19899475811	1.002
17	127370	22.21899475811	1.002
17	127380	22.23899475811	1.002
17	127865	22.25899475811	1.002
17	128060	22.27899475811	1.002
17	128255	22.29899475811	1.002
17	128272	22.31899475811	1.002
17	128282	22.33899475811	1.002
17	128751	22.35899475811	1.002
17	128946	22.37899475811	1.002
17	129141	22.39899475811	1.002
17	129158	22.41899475811	1.002
17	129168	22.43899475811	1.002
17	129653	22.45899475811	1.002
17	129848	22.47899475811	1.002
17	130043	22.49899475811	1.002
17	130060	22.51899475811	1.002
17	130070	22.53899475811	1.002
17	130539	22.55899475811	1.002
17	130734	22.57899475811	1.002
17	130929	22.59899475811	1.002
17	130946	22.61899475811	1.002
17	130956	22.63899475811	1.002
17	131441	22.65899475811	1.002
17	131636	22.67899475811	1.002
17	131831	22.69899475811	1.002
17	131848	22.71899475811	1.002
17	131858	22.73899475811	1.002
17	132338	22.75899475811	1.002
17	132533	22.77899475811	1.002
17	132728	22.79899475811	1.002
17	132745	22.81899475811	1.002
17	132755	22.83899475811	1.002
17	133240	22.85899475811	1.002
17	133435	22.87899475811	1.002
17	133630	22.89899475811	1.002
17	133647	22.91899475811	1.002
17	133657	22.93899475811	1.002
17	134153	22.95899475811	1.002
17	134348	22.97899475811	1.002
17	134543	22.99899475811	1.002
17	134560	23.01899475811	1.002
17	134570	23.03899475811	1.002
17	135055	23.05899475811	1.002
17	135250	23.07899475811	1.002
17	135445	23.09899475811	1.002
17	135462	23.11899475811	1.002
17	135472	23.13899475811	1.002
17	135973	23.15899475811	1.002
17	136168	23.17899475811	1.002
17	136363	23.19899475811	1.002
17	136380	23.21899475811	1.002
17	136390	23.23899475811	1.002
17	136875	23.25899475811	1.002
17	137070	23.27899475811	1.002
17	137265	23.29899475811	1.002
17	137282	23.31899475811	1.002
17	137292	23.33899475811	1.002
17	137772	23.35899475811	1.002
17	137967	23.37899475811	1.002
17	138162	23.39899475811	1.002
17	138179	23.41899475811	1.002
17	138189	23.43899475811	1.002
17	138685	23.45899475811	1.002
17	138880	23.47899475811	1.002
17	139075	23.49899475811	1.002
17	139092	23.51899475811	1.002
17	139102	23.53899475811	1.002
17	139592	23.55899475811	1.002
17	139787	23.57899475811	1.002
17	139982	23.59899475811	1.002
17	139999	23.61899475811	1.002
17	140009	23.63899475811	1.002
17	140478	23.65899475811	1.002
17	140673	23.67899475811	1.002
17	140868	23.69899475811	1.002
17	140885	23.71899475811	1.002
17	140895	23.73899475811	1.002
17	141375	23.75899475811	1.002
17	141570	23.77899475811	1.002
17	141765	23.79899475811	1.002
17	141782	23.81899475811	1.002
17	141792	23.83899475811	1.002
17	142272	23.85899475811	1.002
17	142467	23.87899475811	1.002
17	142662	23.89899475811	1.002
17	142679	23.91899475811	1.002
17	142689	23.93899475811	1.002
17	143185	23.95899475811	1.002
17	143380	23.97899475811	1.002
17	143575	23.99899475811	1.002
17	143592	24.01899475811	1.002
17	143602	24.03899475811	1.002
17	144087	24.05899475811	1.002
17	144282	24.07899475811	1.002
17	144477	24.09899475811	1.002
17	144494	24.11899475811	1.002
17	144504	24.13899475811	1.002
17	145000	24.15899475811	1.002
17	145195	24.17899475811	1.002
17	145390	24.19899475811	1.002
17	145407	24.21899475811	1.002
17	145417	24.23899475811	1.002
17	145908	24.25899475811	1.002
17	146103	24.27899475811	1.002
17	146298	24.29899475811	1.002
17	146315	24.31899475811	1.002
17	146325	24.33899475811	1.002
17	146777	24.35899475811	1.002
17	146972	24.37899475811	1.002
17	147167	24.39899475811	1.002
17	147184	24.41899475811	1.002
17	147194	24.43899475811	1.002
17	147679	24.45899475811	1.002
17	147874	24.47899475811	1.002
17	148069	24.49899475811	1.002
17	148086	24.51899475811	1.002
17	148096	24.53899475811	1.002
17	148586	24.55899475811	1.002
17	148781	24.57899475811	1.002
17	148976	24.59899475811	1.002
17	148993	24.61899475811	1.002
17	149003	24.63899475811	1.002
17	149499	24.65899475811	1.002
17	149694	24.67899475811	1.002
17	149889	24.69899475811	1.002
17	149906	24.71899475811	1.002
17	149916	24.73899475811	1.002
17	150390	24.75899475811	1.002
17	150585	24.77899475811	1.002
17	150780	24.79899475811	1.002
17	150797	24.81899475811	1.002
17	150807	24.83899475811	1.002
17	151282	24.85899475811	1.002
17	151477	24.87899475811	1.002
17	151672	24.89899475811	1.002
17	151689	24.91899475811	1.002
17	151699	24.93899475811	1.002
17	152179	24.95899475811	1.002
17	152374	24.97899475811	1.002
17	152569	24.99899475811	1.002
17	152586	25.01899475811	1.002
17	152596	25.03899475811	1.002
17	153086	25.05899475811	1.002
17	153281	25.07899475811	1.002
17	153476	25.09899475811	1.002
17	153493	25.11899475811	1.002
17	153503	25.13899475811	1.002
17	154004	25.15899475811	1.002
17	154199	25.17899475811	1.002
17	154394	25.19899475811	1.002
17	154411	25.21899475811	1.002
17	154421	25.23899475811	1.002
17	154933	25.25899475811	1.002
17	155128	25.27899475811	1.002
17	155323	25.29899475811	1.002
17	155340	25.31899475811	1.002
17	155350	25.33899475811	1.002
17	155840	25.35899475811	1.002
17	156035	25.37899475811	1.002
17	156230	25.39899475811	1.002
17	156247	25.41899475811	1.002
17	156257	25.43899475811	1.002
17	156736	25.45899475811	1.002
17	156931	25.47899475811	1.002
17	157126	25.49899475811	1.002
17	157143	25.51899475811	1.002
17	157153	25.53899475811	1.002
17	157628	25.55899475811	1.002
17	157823	25.57899475811	1.002
17	158018	25.59899475811	1.002
17	158035	25.61899475811	1.002
17	158045	25.63899475811	1.002
17	158508	25.65899475811	1.002
17	158703	25.67899475811	1.002
17	158898	25.69899475811	1.002
17	158915	25.71899475811	1.002
17	158925	25.73899475811	1.002
17	159415	25.75899475811	1.002
17	159610	25.77899475811	1.002
17	159805	25.79899475811	1.002
17	159822	25.81899475811	1.002
17	159832	25.83899475811	1.002
17	160312	25.85899475811	1.002
17	160507	25.87899475811	1.002
17	160702	25.89899475811	1.002
17	160719	25.91899475811	1.002
17	160729	25.93899475811	1.002
17	161209	25.95899475811	1.002
17	161404	25.97899475811	1.002
17	161599	25.99899475811	1.002
17	161616	26.01899475811	1.002
17	161626	26.03899475811	1.002
17	162095	26.05899475811	1.002
17	162290	26.07899475811	1.002
17	162485	26.09899475811	1.002
17	162502	26.11899475811	1.002
17	162512	26.13899475811	1.002
17	163008	26.15899475811	1.002
17	163203	26.17899475811	1.002
17	163398	26.19899475811	1.002
17	163415	26.21899475811	1.002
17	163425	26.23899475811	1.002
17	163921	26.25899475811	1.002
17	164116	26.27899475811	1.002
17	164311	26.29899475811	1.002
17	164328	26.31899475811	1.002
17	164338	26.33899475811	1.002
17	164801	26.35899475811	1.002
17	164996	26.37899475811	1.002
17	165191	26.39899475811	1.002
17	165208	26.41899475811	1.002
17	165218	26.43899475811	1.002
17	165687	26.45899475811	1.002
17	165882	26.47899475811	1.002
17	166077	26.49899475811	1.002
17	166094	26.51899475811	1.002
17	166104	26.53899475811	1.002
17	166589	26.55899475811	1.002
17	166784	26.57899475811	1.002
17	166979	26.59899475811	1.002
17	166996	26.61899475811	1.002
17	167006	26.63899475811	1.002
17	167464	26.65899475811	1.002
17	167659	26.67899475811	1.002
17	167854	26.69899475811	1.002
17	167871	26.71899475811	1.002
17	167881	26.73899475811	1.002
17	168371	26.75899475811	1.002
17	168566	26.77899475811	1.002
17	168761	26.79899475811	1.002
17	168778	26.81899475811	1.002
17	168788	26.83899475811	1.002
17	169252	26.85899475811	1.002
17	169447	26.87899475811	1.002
17	169642	26.89899475811	1.002
17	169659	26.91899475811	1.002
17	169669	26.93899475811	1.002
17	170149	26.95899475811	1.002
17	170344	26.97899475811	1.002
17	170539	26.99899475811	1.002
17	170556	27.01899475811	1.002
17	170566	27.03899475811	1.002
17	171062	27.05899475811	1.002
17	171257	27.07899475811	1.002
17	171452	27.09899475811	1.002
17	171469	27.11899475811	1.002
17	171479	27.13899475811	1.002
17	171975	27.15899475811	1.002
17	172170	27.17899475811	1.002
17	172365	27.19899475811	1.002
17	172382	27.21899475811	1.002
17	172392	27.23899475811	1.002
17	172871	27.25899475811	1.002
17	173066	27.27899475811	1.002
17	173261	27.29899475811	1.002
17	173278	27.31899475811	1.002
17	173288	27.33899475811	1.002
17	173779	27.35899475811	1.002
17	173974	27.37899475811	1.002
17	174169	27.39899475811	1.002
17	174186	27.41899475811	1.002
17	174196	27.43899475811	1.002
17	174686	27.45899475811	1.002
17	174881	27.47899475811	1.002
17	175076	27.49899475811	1.002
17	175093	27.51899475811	1.002
17	175103	27.53899475811	1.002
17	175577	27.55899475811	1.002
17	175772	27.57899475811	1.002
17	175967	27.59899475811	1.002
17	175984	27.61899475811	1.002
17	175994	27.63899475811	1.002
17	176495	27.65899475811	1.002
17	176690	27.67899475811	1.002
17	176885	27.69899475811	1.002
17	176902	27.71899475811	1.002
17	176912	27.73899475811	1.002
17	177397	27.75899475811	1.002
17	177592	27.77899475811	1.002
17	177787	27.79899475811	1.002
17	177804	27.81899475811	1.002
17	177814	27.83899475811	1.002
17	178298	27.85899475811	1.002
17	178493	27.87899475811	1.002
17	178688	27.89899475811	1.002
17	178705	27.91899475811	1.002
17	178715	27.93899475811	1.002
17	179189	27.95899475811	1.002
17	179384	27.97899475811	1.002
17	179579	27.99899475811	1.002
17	179596	28.01899475811	1.002
17	179606	28.03899475811	1.002
17	180091	28.05899475811	1.002
17	180286	28.07899475811	1.002
17	180481	28.09899475811	1.002
17	180498	28.11899475811	1.002
17	180508	28.13899475811	1.002
17	180999	28.15899475811	1.002
17	181194	28.17899475811	1.002
17	181389	28.19899475811	1.002
17	181406	28.21899475811	1.002
17	181416	28.23899475811	1.002
17	181885	28.25899475811	1.002
17	182080	28.27899475811	1.002
17	182275	28.29899475811	1.002
17	182292	28.31899475811	1.002
17	182302	28.33899475811	1.002
17	182782	28.35899475811	1.002
17	182977	28.37899475811	1.002
17	183172	28.39899475811	1.002
17	183189	28.41899475811	1.002
17	183199	28.43899475811	1.002
17	183673	28.45899475811	1.002
17	183868	28.47899475811	1.002
17	184063	28.49899475811	1.002
17	184080	28.51899475811	1.002
17	184090	28.53899475811	1.002
17	184586	28.55899475811	1.002
17	184781	28.57899475811	1.002
17	184976	28.59899475811	1.002
17	184993	28.61899475811	1.002
17	185003	28.63899475811	1.002
17	185488	28.65899475811	1.002
17	185683	28.67899475811	1.002
17	185878	28.69899475811	1.002
17	185895	28.71899475811	1.002
17	185905	28.73899475811	1.002
17	186390	28.75899475811	1.002
17	186585	28.77899475811	1.002
17	186780	28.79899475811	1.002
17	186797	28.81899475811	1.002
17	186807	28.83899475811	1.002
17	187286	28.85899475811	1.002
17	187481	28.87899475811	1.002
17	187676	28.89899475811	1.002
17	187693	28.91899475811	1.002
17	187703	28.93899475811	1.002
17	188188	28.95899475811	1.002
17	188383	28.97899475811	1.002
17	188578	28.99899475811	1.002
17	188595	29.01899475811	1.002
17	188605	29.03899475811	1.002
17	189085	29.05899475811	1.002
17	189280	29.07899475811	1.002
17	189475	29.09899475811	1.002
17	189492	29.11899475811	1.002
17	189502	29.13899475811	1.002
17	189970	29.15899475811	1.002
17	190165	29.17899475811	1.002
17	190360	29.19899475811	1.002
17	190377	29.21899475811	1.002
17	190387	29.23899475811	1.002
17	190866	29.25899475811	1.002
17	191061	29.27899475811	1.002
17	191256	29.29899475811	1.002
17	191273	29.31899475811	1.002
17	191283	29.33899475811	1.002
17	191768	29.35899475811	1.002
17	191963	29.37899475811	1.002
17	192158	29.39899475811	1.002
17	192175	29.41899475811	1.002
17	192185	29.43899475811	1.002
17	192665	29.45899475811	1.002
17	192860	29.47899475811	1.002
17	193055	29.49899475811	1.002
17	193072	29.51899475811	1.002
17	193082	29.53899475811	1.002
17	193556	29.55899475811	1.002
17	193751	29.57899475811	1.002
17	193946	29.59899475811	1.002
17	193963	29.61899475811	1.002
17	193973	29.63899475811	1.002
17	194458	29.65899475811	1.002
17	194653	29.67899475811	1.002
17	194848	29.69899475811	1.002
17	194865	29.71899475811	1.002
17	194875	29.73899475811	1.002
17	195382	29.75899475811	1.002
17	195577	29.77899475811	1.002
17	195772	29.79899475811	1.002
17	195789	29.81899475811	1.002
17	195799	29.83899475811	1.002
17	196290	29.85899475811	1.002
17	196485	29.87899475811	1.002
17	196680	29.89899475811	1.002
17	196697	29.91899475811	1.002
17	196707	29.93899475811	1.002
17	197176	29.95899475811	1.002
17	197371	29.97899475811	1.002
17	197566	29.99899475811	1.002
17	197583	30.01899475811	1.002
17	197593	30.03899475811	1.002
17	198089	30.05899475811	1.002
17	198284	30.07899475811	1.002
17	198479	30.09899475811	1.002
17	198496	30.11899475811	1.002
17	198506	30.13899475811	1.002
17	199012	30.15899475811	1.002
17	199207	30.17899475811	1.002
17	199402	30.19899475811	1.002
17	199419	30.21899475811	1.002
17	199429	30.23899475811	1.002
17	199914	30.25899475811	1.002
17	200109	30.27899475811	1.002
17	200304	30.29899475811	1.002
17	200321	30.31899475811	1.002
17	200331	30.33899475811	1.002
17	200805	30.35899475811	1.002
17	201000	30.37899475811	1.002
17	201195	30.39899475811	1.002
17	201212	30.41899475811	1.002
17	201222	30.43899475811	1.002
17	201686	30.45899475811	1.002
17	201881	30.47899475811	1.002
17	202076	30.49899475811	1.002
17	202093	30.51899475811	1.002
17	202103	30.53899475811	1.002
17	202572	30.55899475811	1.002
17	202767	30.57899475811	1.002
17	202962	30.59899475811	1.002
17	202979	30.61899475811	1.002
17	202989	30.63899475811	1.002
17	203479	30.65899475811	1.002
17	203674	30.67899475811	1.002
17	203869	30.69899475811	1.002
17	203886	30.71899475811	1.002
17	203896	30.73899475811	1.002
17	204365	30.75899475811	1.002
17	204560	30.77899475811	1.002
17	204755	30.79899475811	1.002
17	204772	30.81899475811	1.002
17	204782	30.83899475811	1.002
17	205262	30.85899475811	1.002
17	205457	30.87899475811	1.002
17	205652	30.89899475811	1.002
17	205669	30.91899475811	1.002
17	205679	30.93899475811	1.002
17	206164	30.95899475811	1.002
17	206359	30.97899475811	1.002
17	206554	30.99899475811	1.002
17	206571	31.01899475811	1.002
17	206581	31.03899475811	1.002
17	207077	31.05899475811	1.002
17	207272	31.07899475811	1.002
17	207467	31.09899475811	1.002
17	207484	31.11899475811	1.002
17	207494	31.13899475811	1.002
17	207990	31.15899475811	1.002
17	208185	31.17899475811	1.002
17	208380	31.19899475811	1.002
17	208397	31.21899475811	1.002
17	208407	31.23899475811	1.002
17	208892	31.25899475811	1.002
17	209087	31.27899475811	1.002
17	209282	31.29899475811	1.002
17	209299	31.31899475811	1.002
17	209309	31.33899475811	1.002
17	209810	31.35899475811	1.002
17	210005	31.37899475811	1.002
17	210200	31.39899475811	1.002
17	210217	31.41899475811	1.002
17	210227	31.43899475811	1.002
17	210728	31.45899475811	1.002
17	210923	31.47899475811	1.002
17	211118	31.49899475811	1.002
17	211135	31.51899475811	1.002
17	211145	31.53899475811	1.002
17	211630	31.55899475811	1.002
17	211825	31.57899475811	1.002
17	212020	31.59899475811	1.002
17	212037	31.61899475811	1.002
17	212047	31.63899475811	1.002
17	212527	31.65899475811	1.002
17	212722	31.67899475811	1.002
17	212917	31.69899475811	1.002
17	212934	31.71899475811	1.002
17	212944	31.73899475811	1.002
17	213429	31.75899475811	1.002
17	213624	31.77899475811	1.002
17	213819	31.79899475811	1.002
17	213836	31.81899475811	1.002
17	213846	31.83899475811	1.002
17	214347	31.85899475811	1.002
17	214542	31.87899475811	1.002
17	214737	31.89899475811	1.002
17	214754	31.91899475811	1.002
17	214764	31.93899475811	1.002
17	215238	31.95899475811	1.002
17	215433	31.97899475811	1.002
17	215628	31.99899475811	1.002
17	215645	32.01899475811	1.002
17	215655	32.03899475811	1.002
17	216151	32.05899475811	1.002
17	216346	32.07899475811	1.002
17	216541	32.09899475811	1.002
17	216558	32.11899475811	1.002
17	216568	32.13899475811	1.002
17	217053	32.15899475811	1.002
17	217248	32.17899475811	1.002
17	217443	32.19899475811	1.002
17	217460	32.21899475811	1.002
17	217470	32.23899475811	1.002
17	217950	32.25899475811	1.002
17	218145	32.27899475811	1.002
17	218340	32.29899475811	1.002
17	218357	32.31899475811	1.002
17	218367	32.33899475811	1.002
17	218847	32.35899475811	1.002
17	219042	32.37899475811	1.002
17	219237	32.39899475811	1.002
17	219254	32.41899475811	1.002
17	219264	32.43899475811	1.002
17	219749	32.45899475811	1.002
17	219944	32.47899475811	1.002
17	220139	32.49899475811	1.002
17	220156	32.51899475811	1.002
17	220166	32.53899475811	1.002
17	220629	32.55899475811	1.002
17	220824	32.57899475811	1.002
17	221019	32.59899475811	1.002
17	221036	32.61899475811	1.002
17	221046	32.63899475811	1.002
17	221526	32.65899475811	1.002
17	221721	32.67899475811	1.002
17	221916	32.69899475811	1.002
17	221933	32.71899475811	1.002
17	221943	32.73899475811	1.002
17	222407	32.75899475811	1.002
17	222602	32.77899475811	1.002
17	222797	32.79899475811	1.002
17	222814	32.81899475811	1.002
17	222824	32.83899475811	1.002
17	223298	32.85899475811	1.002
17	223493	32.87899475811	1.002
17	223688	32.89899475811	1.002
17	223705	32.91899475811	1.002
17	223715	32.93899475811	1.002
17	224183	32.95899475811	1.002
17	224378	32.97899475811	1.002
17	224573	32.99899475811	1.002
17	224590	33.01899475811	1.002
17	224600	33.03899475811	1.002
17	225085	33.05899475811	1.002
17	225280	33.07899475811	1.002
17	225475	33.09899475811	1.002
17	225492	33.11899475811	1.002
17	225502	33.13899475811	1.002
17	225998	33.15899475811	1.002
17	226193	33.17899475811	1.002
17	226388	33.19899475811	1.002
17	226405	33.21899475811	1.002
17	226415	33.23899475811	1.002
17	226900	33.25899475811	1.002
17	227095	33.27899475811	1.002
17	227290	33.29899475811	1.002
17	227307	33.31899475811	1.002
17	227317	33.33899475811	1.002
17	227802	33.35899475811	1.002
17	227997	33.37899475811	1.002
17	228192	33.39899475811	1.002
17	228209	33.41899475811	1.002
17	228219	33.43899475811	1.002
17	228682	33.45899475811	1.002
17	228877	33.47899475811	1.002
17	229072	33.49899475811	1.002
17	229089	33.51899475811	1.002
17	229099	33.53899475811	1.002
17	229584	33.55899475811	1.002
17	229779	33.57899475811	1.002
17	229974	33.59899475811	1.002
17	229991	33.61899475811	1.002
17	230001	33.63899475811	1.002
17	230486	33.65899475811	1.002
17	230681	33.67899475811	1.002
17	230876	33.69899475811	1.002
17	230893	33.71899475811	1.002
17	230903	33.73899475811	1.002
17	231377	33.75899475811	1.002
17	231572	33.77899475811	1.002
17	231767	33.79899475811	1.002
17	231784	33.81899475811	1.002
17	231794	33.83899475811	1.002
17	232268	33.85899475811	1.002
17	232463	33.87899475811	1.002
17	232658	33.89899475811	1.002
17	232675	33.91899475811	1.002
17	232685	33.93899475811	1.002
17	233159	33.95899475811	1.002
17	233354	33.97899475811	1.002
17	233549	33.99899475811	1.002
17	233566	34.01899475811	1.002
17	233576	34.03899475811	1.002
17	234045	34.05899475811	1.002
17	234240	34.07899475811	1.002
17	234435	34.09899475811	1.002
17	234452	34.11899475811	1.002
17	234462	34.13899475811	1.002
17	234942	34.15899475811	1.002
17	235137	34.17899475811	1.002
17	235332	34.19899475811	1.002
17	235349	34.21899475811	1.002
17	235359	34.23899475811	1.002
17	235855	34.25899475811	1.002
17	236050	34.27899475811	1.002
17	236245	34.29899475811	1.002
17	236262	34.31899475811	1.002
17	236272	34.33899475811	1.002
17	236741	34.35899475811	1.002
17	236936	34.37899475811	1.002
17	237131	34.39899475811	1.002
17	237148	34.41899475811	1.002
17	237158	34.43899475811	1.002
17	237632	34.45899475811	1.002
17	237827	34.47899475811	1.002
17	238022	34.49899475811	1.002
17	238039	34.51899475811	1.002
17	238049	34.53899475811	1.002
17	238513	34.55899475811	1.002
17	238708	34.57899475811	1.002
17	238903	34.59899475811	1.002
17	238920	34.61899475811	1.002
17	238930	34.63899475811	1.002
17	239410	34.65899475811	1.002
17	239605	34.67899475811	1.002
17	239800	34.69899475811	1.002
17	239817	34.71899475811	1.002
17	239827	34.73899475811	1.002
17	240318	34.75899475811	1.002
17	240513	34.77899475811	1.002
17	240708	34.79899475811	1.002
17	240725	34.81899475811	1.002
17	240735	34.83899475811	1.002
17	241193	34.85899475811	1.002
17	241388	34.87899475811	1.002
17	241583	34.89899475811	1.002
17	241600	34.91899475811	1.002
17	241610	34.93899475811	1.002
17	242095	34.95899475811	1.002
17	242290	34.97899475811	1.002
17	242485	34.99899475811	1.002
17	242502	35.01899475811	1.002
17	242512	35.03899475811	1.002
17	242997	35.05899475811	1.002
17	243192	35.07899475811	1.002
17	243387	35.09899475811	1.002
17	243404	35.11899475811	1.002
17	243414	35.13899475811	1.002
17	243888	35.15899475811	1.002
17	244083	35.17899475811	1.002
17	244278	35.19899475811	1.002
17	244295	35.21899475811	1.002
17	244305	35.23899475811	1.002
17	244768	35.25899475811	1.002
17	244963	35.27899475811	1.002
17	245158	35.29899475811	1.002
17	245175	35.31899475811	1.002
17	245185	35.33899475811	1.002
17	245665	35.35899475811	1.002
17	245860	35.37899475811	1.002
17	246055	35.39899475811	1.002
17	246072	35.41899475811	1.002
17	246082	35.43899475811	1.002
17	246573	35.45899475811	1.002
17	246768	35.47899475811	1.002
17	246963	35.49899475811	1.002
17	246980	35.51899475811	1.002
17	246990	35.53899475811	1.002
17	247453	35.55899475811	1.002
17	247648	35.57899475811	1.002
17	247843	35.59899475811	1.002
17	247860	35.61899475811	1.002
17	247870	35.63899475811	1.002
17	248377	35.65899475811	1.002
17	248572	35.67899475811	1.002
17	248767	35.69899475811	1.002
17	248784	35.71899475811	1.002
17	248794	35.73899475811	1.002
17	249268	35.75899475811	1.002
17	249463	35.77899475811	1.002
17	249658	35.79899475811	1.002
17	249675	35.81899475811	1.002
17	249685	35.83899475811	1.002
17	250165	35.85899475811	1.002
17	250360	35.87899475811	1.002
17	250555	35.89899475811	1.002
17	250572	35.91899475811	1.002
17	250582	35.93899475811	1.002
17	251077	35.95899475811	1.002
17	251272	35.97899475811	1.002
17	251467	35.99899475811	1.002
17	251484	36.01899475811	1.002
17	251494	36.03899475811	1.002
17	251990	36.05899475811	1.002
17	252185	36.07899475811	1.002
17	252380	36.09899475811	1.002
17	252397	36.11899475811	1.002
17	252407	36.13899475811	1.002
17	252919	36.15899475811	1.002
17	253114	36.17899475811	1.002
17	253309	36.19899475811	1.002
17	253326	36.21899475811	1.002
17	253336	36.23899475811	1.002
17	253832	36.25899475811	1.002
17	254027	36.27899475811	1.002
17	254222	36.29899475811	1.002
17	254239	36.31899475811	1.002
17	254249	36.33899475811	1.002
17	254750	36.35899475811	1.002
17	254945	36.37899475811	1.002
17	255140	36.39899475811	1.002
17	255157	36.41899475811	1.002
17	255167	36.43899475811	1.002
17	255636	36.45899475811	1.002
17	255831	36.47899475811	1.002
17	256026	36.49899475811	1.002
17	256043	36.51899475811	1.002
17	256053	36.53899475811	1.002
17	256511	36.55899475811	1.002
17	256706	36.57899475811	1.002
17	256901	36.59899475811	1.002
17	256918	36.61899475811	1.002
17	256928	36.63899475811	1.002
17	257413	36.65899475811	1.002
17	257608	36.67899475811	1.002
17	257803	36.69899475811	1.002
17	257820	36.71899475811	1.002
17	257830	36.73899475811	1.002
17	258326	36.75899475811	1.002
17	258521	36.77899475811	1.002
17	258716	36.79899475811	1.002
17	258733	36.81899475811	1.002
17	258743	36.83899475811	1.002
17	259207	36.85899475811	1.002
17	259402	36.87899475811	1.002
17	259597	36.89899475811	1.002
17	259614	36.91899475811	1.002
17	259624	36.93899475811	1.002
17	260098	36.95899475811	1.002
17	260293	36.97899475811	1.002
17	260488	36.99899475811	1.002
17	260505	37.01899475811	1.002
17	260515	37.03899475811	1.002
17	260994	37.05899475811	1.002
17	261189	37.07899475811	1.002
17	261384	37.09899475811	1.002
17	261401	37.11899475811	1.002
17	261411	37.13899475811	1.002
17	261880	37.15899475811	1.002
17	262075	37.17899475811	1.002
17	262270	37.19899475811	1.002
17	262287	37.21899475811	1.002
17	262297	37.23899475811	1.002
17	262766	37.25899475811	1.002
17	262961	37.27899475811	1.002
17	263156	37.29899475811	1.002
17	263173	37.31899475811	1.002
17	263183	37.33899475811	1.002
17	263657	37.35899475811	1.002
17	263852	37.37899475811	1.002
17	264047	37.39899475811	1.002
17	264064	37.41899475811	1.002
17	264074	37.43899475811	1.002
17	264532	37.45899475811	1.002
17	264727	37.47899475811	1.002
17	264922	37.49899475811	1.002
17	264939	37.51899475811	1.002
17	264949	37.53899475811	1.002
17	265434	37.55899475811	1.002
17	265629	37.57899475811	1.002
17	265824	37.59899475811	1.002
17	265841	37.61899475811	1.002
17	265851	37.63899475811	1.002
17	266352	37.65899475811	1.002
17	266547	37.67899475811	1.002
17	266742	37.69899475811	1.002
17	266759	37.71899475811	1.002
17	266769	37.73899475811	1.002
17	267238	37.75899475811	1.002
17	267433	37.77899475811	1.002
17	267628	37.79899475811	1.002
17	267645	37.81899475811	1.002
17	267655	37.83899475811	1.002
17	268140	37.85899475811	1.002
17	268335	37.87899475811	1.002
17	268530	37.89899475811	1.002
17	268547	37.91899475811	1.002
17	268557	37.93899475811	1.002
17	269020	37.95899475811	1.002
17	269215	37.97899475811	1.002
17	269410	37.99899475811	1.002
17	269427	38.01899475811	1.002
17	269437	38.03899475811	1.002
17	269922	38.05899475811	1.002
17	270117	38.07899475811	1.002
17	270312	38.09899475811	1.002
17	270329	38.11899475811	1.002
17	270339	38.13899475811	1.002
17	270803	38.15899475811	1.002
17	270998	38.17899475811	1.002
17	271193	38.19899475811	1.002
17	271210	38.21899475811	1.002
17	271220	38.23899475811	1.002
17	271694	38.25899475811	1.002
17	271889	38.27899475811	1.002
17	272084	38.29899475811	1.002
17	272101	38.31899475811	1.002
17	272111	38.33899475811	1.002
17	272601	38.35899475811	1.002
17	272796	38.37899475811	1.002
17	272991	38.39899475811	1.002
17	273008	38.41899475811	1.002
17	273018	38.43899475811	1.002
17	273514	38.45899475811	1.002
17	273709	38.47899475811	1.002
17	273904	38.49899475811	1.002
17	273921	38.51899475811	1.002
17	273931	38.53899475811	1.002
17	274400	38.55899475811	1.002
17	274595	38.57899475811	1.002
17	274790	38.59899475811	1.002
17	274807	38.61899475811	1.002
17	274817	38.63899475811	1.002
17	275307	38.65899475811	1.002
17	275502	38.67899475811	1.002
17	275697	38.69899475811	1.002
17	275714	38.71899475811	1.002
17	275724	38.73899475811	1.002
17	276204	38.75899475811	1.002
17	276399	38.77899475811	1.002
17	276594	38.79899475811	1.002
17	276611	38.81899475811	1.002
17	276621	38.83899475811	1.002
17	277101	38.85899475811	1.002
17	277296	38.87899475811	1.002
17	277491	38.89899475811	1.002
17	277508	38.91899475811	1.002
17	277518	38.93899475811	1.002
17	278024	38.95899475811	1.002
17	278219	38.97899475811	1.002
17	278414	38.99899475811	1.002
17	278431	39.01899475811	1.002
17	278441	39.03899475811	1.002
17	278921	39.05899475811	1.002
17	279116	39.07899475811	1.002
17	279311	39.09899475811	1.002
17	279328	39.11899475811	1.002
17	279338	39.13899475811	1.002
17	279855	39.15899475811	1.002
17	280050	39.17899475811	1.002
17	280245	39.19899475811	1.002
17	280262	39.21899475811	1.002
17	280272	39.23899475811	1.002
17	280757	39.25899475811	1.002
17	280952	39.27899475811	1.002
17	281147	39.29899475811	1.002
17	281164	39.31899475811	1.002
17	281174	39.33899475811	1.002
17	281659	39.35899475811	1.002
17	281854	39.37899475811	1.002
17	282049	39.39899475811	1.002
17	282066	39.41899475811	1.002
17	282076	39.43899475811	1.002
17	282556	39.45899475811	1.002
17	282751	39.47899475811	1.002
17	282946	39.49899475811	1.002
17	282963	39.51899475811	1.002
17	282973	39.53899475811	1.002
17	283458	39.55899475811	1.002
17	283653	39.57899475811	1.002
17	283848	39.59899475811	1.002
17	283865	39.61899475811	1.002
17	283875	39.63899475811	1.002
17	284338	39.65899475811	1.002
17	284533	39.67899475811	1.002
17	284728	39.69899475811	1.002
17	284745	39.71899475811	1.002
17	284755	39.73899475811	1.002
17	285213	39.75899475811	1.002
17	285408	39.77899475811	1.002
17	285603	39.79899475811	1.002
17	285620	39.81899475811	1.002
17	285630	39.83899475811	1.002
17	286115	39.85899475811	1.002
17	286310	39.87899475811	1.002
17	286505	39.89899475811	1.002
17	286522	39.91899475811	1.002
17	286532	39.93899475811	1.002
17	287012	39.95899475811	1.002
17	287207	39.97899475811	1.002
17	287402	39.99899475811	1.002
17	287419	40.01899475811	1.002
17	287429	40.03899475811	1.002
17	287898	40.05899475811	1.002
17	288093	40.07899475811	1.002
17	288288	40.09899475811	1.002
17	288305	40.11899475811	1.002
17	288315	40.13899475811	1.002
17	288800	40.15899475811	1.002
17	288995	40.17899475811	1.002
17	289190	40.19899475811	1.002
17	289207	40.21899475811	1.002
17	289217	40.23899475811	1.002
17	289713	40.25899475811	1.002
17	289908	40.27899475811	1.002
17	290103	40.29899475811	1.002
17	290120	40.31899475811	1.002
17	290130	40.33899475811	1.002
17	290626	40.35899475811	1.002
17	290821	40.37899475811	1.002
17	291016	40.39899475811	1.002
17	291033	40.41899475811	1.002
17	291043	40.43899475811	1.002
17	291517	40.45899475811	1.002
17	291712	40.47899475811	1.002
17	291907	40.49899475811	1.002
17	291924	40.51899475811	1.002
17	291934	40.53899475811	1.002
17	292403	40.55899475811	1.002
17	292598	40.57899475811	1.002
17	292793	40.59899475811	1.002
17	292810	40.61899475811	1.002
17	292820	40.63899475811	1.002
17	293278	40.65899475811	1.002
17	293473	40.67899475811	1.002
17	293668	40.69899475811	1.002
17	293685	40.71899475811	1.002
17	293695	40.73899475811	1.002
17	294185	40.75899475811	1.002
17	294380	40.77899475811	1.002
17	294575	40.79899475811	1.002
17	294592	40.81899475811	1.002
17	294602	40.83899475811	1.002
17	295109	40.85899475811	1.002
17	295304	40.87899475811	1.002
17	295499	40.89899475811	1.002
17	295516	40.91899475811	1.002
17	295526	40.93899475811	1.002
17	295989	40.95899475811	1.002
17	296184	40.97899475811	1.002
17	296379	40.99899475811	1.002
17	296396	41.01899475811	1.002
17	296406	41.03899475811	1.002
17	296891	41.05899475811	1.002
17	297086	41.07899475811	1.002
17	297281	41.09899475811	1.002
17	297298	41.11899475811	1.002
17	297308	41.13899475811	1.002
17	297766	41.15899475811	1.002
17	297961	41.17899475811	1.002
17	298156	41.19899475811	1.002
17	298173	41.21899475811	1.002
17	298183	41.23899475811	1.002
17	298646	41.25899475811	1.002
17	298841	41.27899475811	1.002
17	299036	41.29899475811	1.002
17	299053	41.31899475811	1.002
17	299063	41.33899475811	1.002
17	299548	41.35899475811	1.002
17	299743	41.37899475811	1.002
17	299938	41.39899475811	1.002
17	299955	41.41899475811	1.002
17	299965	41.43899475811	1.002
17	300445	41.45899475811	1.002
17	300640	41.47899475811	1.002
17	300835	41.49899475811	1.002
17	300852	41.51899475811	1.002
17	300862	41.53899475811	1.002
17	301325	41.55899475811	1.002
17	301520	41.57899475811	1.002
17	301715	41.59899475811	1.002
17	301732	41.61899475811	1.002
17	301742	41.63899475811	1.002
17	302227	41.65899475811	1.002
17	302422	41.67899475811	1.002
17	302617	41.69899475811	1.002
17	302634	41.71899475811	1.002
17	302644	41.73899475811	1.002
17	303129	41.75899475811	1.002
17	303324	41.77899475811	1.002
17	303519	41.79899475811	1.002
17	303536	41.81899475811	1.002
17	303546	41.83899475811	1.002
17	304031	41.85899475811	1.002
17	304226	41.87899475811	1.002
17	304421	41.89899475811	1.002
17	304438	41.91899475811	1.002
17	304448	41.93899475811	1.002
17	304933	41.95899475811	1.002
17	305128	41.97899475811	1.002
17	305323	41.99899475811	1.002
17	305340	42.01899475811	1.002
17	305350	42.03899475811	1.002
17	305819	42.05899475811	1.002
17	306014	42.07899475811	1.002
17	306209	42.09899475811	1.002
17	306226	42.11899475811	1.002
17	306236	42.13899475811	1.002
17	306721	42.15899475811	1.002
17	306916	42.17899475811	1.002
17	307111	42.19899475811	1.002
17	307128	42.21899475811	1.002
17	307138	42.23899475811	1.002
17	307607	42.25899475811	1.002
17	307802	42.27899475811	1.002
17	307997	42.29899475811	1.002
17	308014	42.31899475811	1.002
17	308024	42.33899475811	1.002
17	308493	42.35899475811	1.002
17	308688	42.37899475811	1.002
17	308883	42.39899475811	1.002
17	308900	42.41899475811	1.002
17	308910	42.43899475811	1.002
17	309389	42.45899475811	1.002
17	309584	42.47899475811	1.002
17	309779	42.49899475811	1.002
17	309796	42.51899475811	1.002
17	309806	42.53899475811	1.002
17	310291	42.55899475811	1.002
17	310486	42.57899475811	1.002
17	310681	42.59899475811	1.002
17	310698	42.61899475811	1.002
17	310708	42.63899475811	1.002
17	311182	42.65899475811	1.002
17	311377	42.67899475811	1.002
17	311572	42.69899475811	1.002
17	311589	42.71899475811	1.002
17	311599	42.73899475811	1.002
17	312100	42.75899475811	1.002
17	312295	42.77899475811	1.002
17	312490	42.79899475811	1.002
17	312507	42.81899475811	1.002
17	312517	42.83899475811	1.002
17	313013	42.85899475811	1.002
17	313208	42.87899475811	1.002
17	313403	42.89899475811	1.002
17	313420	42.91899475811	1.002
17	313430	42.93899475811	1.002
17	313915	42.95899475811	1.002
17	314110	42.97899475811	1.002
17	314305	42.99899475811	1.002
17	314322	43.01899475811	1.002
17	314332	43.03899475811	1.002
17	314817	43.05899475811	1.002
17	315012	43.07899475811	1.002
17	315207	43.09899475811	1.002
17	315224	43.11899475811	1.002
17	315234	43.13899475811	1.002
17	315746	43.15899475811	1.002
17	315941	43.17899475811	1.002
17	316136	43.19899475811	1.002
17	316153	43.21899475811	1.002
17	316163	43.23899475811	1.002
17	316632	43.25899475811	1.002
17	316827	43.27899475811	1.002
17	317022	43.29899475811	1.002
17	317039	43.31899475811	1.002
17	317049	43.33899475811	1.002
17	317534	43.35899475811	1.002
17	317729	43.37899475811	1.002
17	317924	43.39899475811	1.002
17	317941	43.41899475811	1.002
17	317951	43.43899475811	1.002
17	318431	43.45899475811	1.002
17	318626	43.47899475811	1.002
17	318821	43.49899475811	1.002
17	318838	43.51899475811	1.002
17	318848	43.53899475811	1.002
17	319333	43.55899475811	1.002
17	319528	43.57899475811	1.002
17	319723	43.59899475811	1.002
17	319740	43.61899475811	1.002
17	319750	43.63899475811	1.002
17	320235	43.65899475811	1.002
17	320430	43.67899475811	1.002
17	320625	43.69899475811	1.002
17	320642	43.71899475811	1.002
17	320652	43.73899475811	1.002
17	321137	43.75899475811	1.002
17	321332	43.77899475811	1.002
17	321527	43.79899475811	1.002
17	321544	43.81899475811	1.002
17	321554	43.83899475811	1.002
17	322028	43.85899475811	1.002
17	322223	43.87899475811	1.002
17	322418	43.89899475811	1.002
17	322435	43.91899475811	1.002
17	322445	43.93899475811	1.002
17	322909	43.95899475811	1.002
17	323104	43.97899475811	1.002
17	323299	43.99899475811	1.002
17	323316	44.01899475811	1.002
17	323326	44.03899475811	1.002
17	323795	44.05899475811	1.002
17	323990	44.07899475811	1.002
17	324185	44.09899475811	1.002
17	324202	44.11899475811	1.002
17	324212	44.13899475811	1.002
17	324708	44.15899475811	1.002
17	324903	44.17899475811	1.002
17	325098	44.19899475811	1.002
17	325115	44.21899475811	1.002
17	325125	44.23899475811	1.002
17	325588	44.25899475811	1.002
17	325783	44.27899475811	1.002
17	325978	44.29899475811	1.002
17	325995	44.31899475811	1.002
17	326005	44.33899475811	1.002
17	326479	44.35899475811	1.002
17	326674	44.37899475811	1.002
17	326869	44.39899475811	1.002
17	326886	44.41899475811	1.002
17	326896	44.43899475811	1.002
17	327354	44.45899475811	1.002
17	327549	44.47899475811	1.002
17	327744	44.49899475811	1.002
17	327761	44.51899475811	1.002
17	327771	44.53899475811	1.002
17	328272	44.55899475811	1.002
17	328467	44.57899475811	1.002
17	328662	44.59899475811	1.002
17	328679	44.61899475811	1.002
17	328689	44.63899475811	1.002
17	329158	44.65899475811	1.002
17	329353	44.67899475811	1.002
17	329548	44.69899475811	1.002
17	329565	44.71899475811	1.002
17	329575	44.73899475811	1.002
17	330055	44.75899475811	1.002
17	330250	44.77899475811	1.002
17	330445	44.79899475811	1.002
17	330462	44.81899475811	1.002
17	330472	44.83899475811	1.002
17	330979	44.85899475811	1.002
17	331174	44.87899475811	1.002
17	331369	44.89899475811	1.002
17	331386	44.91899475811	1.002
17	331396	44.93899475811	1.002
17	331887	44.95899475811	1.002
17	332082	44.97899475811	1.002
17	332277	44.99899475811	1.002
17	332294	45.01899475811	1.002
17	332304	45.03899475811	1.002
17	332789	45.05899475811	1.002
17	332984	45.07899475811	1.002
17	333179	45.09899475811	1.002
17	333196	45.11899475811	1.002
17	333206	45.13899475811	1.002
17	333696	45.15899475811	1.002
17	333891	45.17899475811	1.002
17	334086	45.19899475811	1.002
17	334103	45.21899475811	1.002
17	334113	45.23899475811	1.002
17	334609	45.25899475811	1.002
17	334804	45.27899475811	1.002
17	334999	45.29899475811	1.002
17	335016	45.31899475811	1.002
17	335026	45.33899475811	1.002
17	335495	45.35899475811	1.002
17	335690	45.37899475811	1.002
17	335885	45.39899475811	1.002
17	335902	45.41899475811	1.002
17	335912	45.43899475811	1.002
17	336402	45.45899475811	1.002
17	336597	45.47899475811	1.002
17	336792	45.49899475811	1.002
17	336809	45.51899475811	1.002
17	336819	45.53899475811	1.002
17	337304	45.55899475811	1.002
17	337499	45.57899475811	1.002
17	337694	45.59899475811	1.002
17	337711	45.61899475811	1.002
17	337721	45.63899475811	1.002
17	338196	45.65899475811	1.002
17	338391	45.67899475811	1.002
17	338586	45.69899475811	1.002
17	338603	45.71899475811	1.002
17	338613	45.73899475811	1.002
17	339087	45.75899475811	1.002
17	339282	45.77899475811	1.002
17	339477	45.79899475811	1.002
17	339494	45.81899475811	1.002
17	339504	45.83899475811	1.002
17	339962	45.85899475811	1.002
17	340157	45.87899475811	1.002
17	340352	45.89899475811	1.002
17	340369	45.91899475811	1.002
17	340379	45.93899475811	1.002
17	340869	45.95899475811	1.002
17	341064	45.97899475811	1.002
17	341259	45.99899475811	1.002
17	341276	46.01899475811	1.002
17	341286	46.03899475811	1.002
17	341770	46.05899475811	1.002
17	341965	46.07899475811	1.002
17	342160	46.09899475811	1.002
17	342177	46.11899475811	1.002
17	342187	46.13899475811	1.002
17	342656	46.15899475811	1.002
17	342851	46.17899475811	1.002
17	343046	46.19899475811	1.002
17	343063	46.21899475811	1.002
17	343073	46.23899475811	1.002
17	343569	46.25899475811	1.002
17	343764	46.27899475811	1.002
17	343959	46.29899475811	1.002
17	343976	46.31899475811	1.002
17	343986	46.33899475811	1.002
17	344487	46.35899475811	1.002
17	344682	46.37899475811	1.002
17	344877	46.39899475811	1.002
17	344894	46.41899475811	1.002
17	344904	46.43899475811	1.002
17	345372	46.45899475811	1.002
17	345567	46.47899475811	1.002
17	345762	46.49899475811	1.002
17	345779	46.51899475811	1.002
17	345789	46.53899475811	1.002
17	346280	46.55899475811	1.002
17	346475	46.57899475811	1.002
17	346670	46.59899475811	1.002
17	346687	46.61899475811	1.002
17	346697	46.63899475811	1.002
17	347160	46.65899475811	1.002
17	347355	46.67899475811	1.002
17	347550	46.69899475811	1.002
17	347567	46.71899475811	1.002
17	347577	46.73899475811	1.002
17	348078	46.75899475811	1.002
17	348273	46.77899475811	1.002
17	348468	46.79899475811	1.002
17	348485	46.81899475811	1.002
17	348495	46.83899475811	1.002
17	348991	46.85899475811	1.002
17	349186	46.87899475811	1.002
17	349381	46.89899475811	1.002
17	349398	46.91899475811	1.002
17	349408	46.93899475811	1.002
17	349904	46.95899475811	1.002
17	350099	46.97899475811	1.002
17	350294	46.99899475811	1.002
17	350311	47.01899475811	1.002
17	350321	47.03899475811	1.002
17	350800	47.05899475811	1.002
17	350995	47.07899475811	1.002
17	351190	47.09899475811	1.002
17	351207	47.11899475811	1.002
17	351217	47.13899475811	1.002
17	351686	47.15899475811	1.002
17	351881	47.17899475811	1.002
17	352076	47.19899475811	1.002
17	352093	47.21899475811	1.002
17	352103	47.23899475811	1.002
17	352593	47.25899475811	1.002
17	352788	47.27899475811	1.002
17	352983	47.29899475811	1.002
17	353000	47.31899475811	1.002
17	353010	47.33899475811	1.002
17	353489	47.35899475811	1.002
17	353684	47.37899475811	1.002
17	353879	47.39899475811	1.002
17	353896	47.41899475811	1.002
17	353906	47.43899475811	1.002
17	354364	47.45899475811	1.002
17	354559	47.47899475811	1.002
17	354754	47.49899475811	1.002
17	354771	47.51899475811	1.002
17	354781	47.53899475811	1.002
17	355277	47.55899475811	1.002
17	355472	47.57899475811	1.002
17	355667	47.59899475811	1.002
17	355684	47.61899475811	1.002
17	355694	47.63899475811	1.002
17	356179	47.65899475811	1.002
17	356374	47.67899475811	1.002
17	356569	47.69899475811	1.002
17	356586	47.71899475811	1.002
17	356596	47.73899475811	1.002
17	357081	47.75899475811	1.002
17	357276	47.77899475811	1.002
17	357471	47.79899475811	1.002
17	357488	47.81899475811	1.002
17	357498	47.83899475811	1.002
17	357994	47.85899475811	1.002
17	358189	47.87899475811	1.002
17	358384	47.89899475811	1.002
17	358401	47.91899475811	1.002
17	358411	47.93899475811	1.002
17	358875	47.95899475811	1.002
17	359070	47.97899475811	1.002
17	359265	47.99899475811	1.002
17	359282	48.01899475811	1.002
17	359292	48.03899475811	1.002
17	359782	48.05899475811	1.002
17	359977	48.07899475811	1.002
17	360172	48.09899475811	1.002
17	360189	48.11899475811	1.002
17	360199	48.13899475811	1.002
17	360668	48.15899475811	1.002
17	360863	48.17899475811	1.002
17	361058	48.19899475811	1.002
17	361075	48.21899475811	1.002
17	361085	48.23899475811	1.002
17	361586	48.25899475811	1.002
17	361781	48.27899475811	1.002
17	361976	48.29899475811	1.002
17	361993	48.31899475811	1.002
17	362003	48.33899475811	1.002
17	362494	48.35899475811	1.002
17	362689	48.37899475811	1.002
17	362884	48.39899475811	1.002
17	362901	48.41899475811	1.002
17	362911	48.43899475811	1.002
17	363402	48.45899475811	1.002
17	363597	48.47899475811	1.002
17	363792	48.49899475811	1.002
17	363809	48.51899475811	1.002
17	363819	48.53899475811	1.002
17	364309	48.55899475811	1.002
17	364504	48.57899475811	1.002
17	364699	48.59899475811	1.002
17	364716	48.61899475811	1.002
17	364726	48.63899475811	1.002
17	365195	48.65899475811	1.002
17	365390	48.67899475811	1.002
17	365585	48.69899475811	1.002
17	365602	48.71899475811	1.002
17	365612	48.73899475811	1.002
17	366081	48.75899475811	1.002
17	366276	48.77899475811	1.002
17	366471	48.79899475811	1.002
17	366488	48.81899475811	1.002
17	366498	48.83899475811	1.002
17	366983	48.85899475811	1.002
17	367178	48.87899475811	1.002
17	367373	48.89899475811	1.002
17	367390	48.91899475811	1.002
17	367400	48.93899475811	1.002
17	367869	48.95899475811	1.002
17	368064	48.97899475811	1.002
17	368259	48.99899475811	1.002
17	368276	49.01899475811	1.002
17	368286	49.03899475811	1.002
17	368771	49.05899475811	1.002
17	368966	49.07899475811	1.002
17	369161	49.09899475811	1.002
17	369178	49.11899475811	1.002
17	369188	49.13899475811	1.002
17	369662	49.15899475811	1.002
17	369857	49.17899475811	1.002
17	370052	49.19899475811	1.002
17	370069	49.21899475811	1.002
17	370079	49.23899475811	1.002
17	370564	49.25899475811	1.002
17	370759	49.27899475811	1.002
17	370954	49.29899475811	1.002
17	370971	49.31899475811	1.002
17	370981	49.33899475811	1.002
17	371455	49.35899475811	1.002
17	371650	49.37899475811	1.002
17	371845	49.39899475811	1.002
17	371862	49.41899475811	1.002
17	371872	49.43899475811	1.002
17	372347	49.45899475811	1.002
17	372542	49.47899475811	1.002
17	372737	49.49899475811	1.002
17	372754	49.51899475811	1.002
17	372764	49.53899475811	1.002
17	373249	49.55899475811	1.002
17	373444	49.57899475811	1.002
17	373639	49.59899475811	1.002
17	373656	49.61899475811	1.002
17	373666	49.63899475811	1.002
17	374140	49.65899475811	1.002
17	374335	49.67899475811	1.002
17	374530	49.69899475811	1.002
[...]
14	330448	44.800095691668	0.002
14	330477	44.850095691668	0.001
14	331372	44.900095691668	0.002
14	331401	44.950095691668	0.001
14	332280	45.000095691668	0.002
14	332309	45.050095691668	0.001
14	333182	45.100095691668	0.002
14	333211	45.150095691668	0.001
14	334089	45.200095691668	0.002
14	334118	45.250095691668	0.001
14	335002	45.300095691668	0.002
14	335031	45.350095691668	0.001
14	335888	45.400095691668	0.002
14	335917	45.450095691668	0.001
14	336795	45.500095691668	0.002
14	336824	45.550095691668	0.001
14	337697	45.600095691668	0.002
14	337726	45.650095691668	0.001
14	338589	45.700095691668	0.002
14	338618	45.750095691668	0.001
14	339480	45.800095691668	0.002
14	339509	45.850095691668	0.001
14	340355	45.900095691668	0.002
14	340384	45.950095691668	0.001
14	341262	46.000095691668	0.002
14	341291	46.050095691668	0.001
14	342163	46.100095691668	0.002
14	342192	46.150095691668	0.001
14	343049	46.200095691668	0.002
14	343078	46.250095691668	0.001
14	343962	46.300095691668	0.002
14	343991	46.350095691668	0.001
14	344880	46.400095691668	0.002
14	344909	46.450095691668	0.001
14	345765	46.500095691668	0.002
14	345794	46.550095691668	0.001
14	346673	46.600095691668	0.002
14	346702	46.650095691668	0.001
14	347553	46.700095691668	0.002
14	347582	46.750095691668	0.001
14	348471	46.800095691668	0.002
14	348500	46.850095691668	0.001
14	349384	46.900095691668	0.002
14	349413	46.950095691668	0.001
14	350297	47.000095691668	0.002
14	350326	47.050095691668	0.001
14	351193	47.100095691668	0.002
14	351222	47.150095691668	0.001
14	352079	47.200095691668	0.002
14	352108	47.250095691668	0.001
14	352986	47.300095691668	0.002
14	353015	47.350095691668	0.001
14	353882	47.400095691668	0.002
14	353911	47.450095691668	0.001
14	354757	47.500095691668	0.002
14	354786	47.550095691668	0.001
14	355670	47.600095691668	0.002
14	355699	47.650095691668	0.001
14	356572	47.700095691668	0.002
14	356601	47.750095691668	0.001
14	357474	47.800095691668	0.002
14	357503	47.850095691668	0.001
14	358387	47.900095691668	0.002
14	358416	47.950095691668	0.001
14	359268	48.000095691668	0.002
14	359297	48.050095691668	0.001
14	360175	48.100095691668	0.002
14	360204	48.150095691668	0.001
14	361061	48.200095691668	0.002
14	361090	48.250095691668	0.001
14	361979	48.300095691668	0.002
14	362008	48.350095691668	0.001
14	362887	48.400095691668	0.002
14	362916	48.450095691668	0.001
14	363795	48.500095691668	0.002
14	363824	48.550095691668	0.001
14	364702	48.600095691668	0.002
14	364731	48.650095691668	0.001
14	365588	48.700095691668	0.002
14	365617	48.750095691668	0.001
14	366474	48.800095691668	0.002
14	366503	48.850095691668	0.001
14	367376	48.900095691668	0.002
14	367405	48.950095691668	0.001
14	368262	49.000095691668	0.002
14	368291	49.050095691668	0.001
14	369164	49.100095691668	0.002
14	369193	49.150095691668	0.001
14	370055	49.200095691668	0.002
14	370084	49.250095691668	0.001
14	370957	49.300095691668	0.002
14	370986	49.350095691668	0.001
14	371848	49.400095691668	0.002
14	371877	49.450095691668	0.001
14	372740	49.500095691668	0.002
14	372769	49.550095691668	0.001
14	373642	49.600095691668	0.002
14	373671	49.650095691668	0.001
14	374533	49.700095691668	0.002
14	374562	49.750095691668	0.001
14	375435	49.800095691668	0.002
14	375464	49.850095691668	0.001
14	376321	49.900095691668	0.002
14	376350	49.950095691668	0.001
14	377223	50.000095691668	0.002
14	377252	50.050095691668	0.001
14	378125	50.100095691668	0.002
14	378154	50.150095691668	0.001
14	379016	50.200095691668	0.002
14	379045	50.250095691668	0.001
14	379913	50.300095691668	0.002
14	379942	50.350095691668	0.001
14	380804	50.400095691668	0.002
14	380833	50.450095691668	0.001
14	381684	50.500095691668	0.002
14	381713	50.550095691668	0.001
14	382581	50.600095691668	0.002
14	382610	50.650095691668	0.001
14	383467	50.700095691668	0.002
14	383496	50.750095691668	0.001
14	384358	50.800095691668	0.002
14	384387	50.850095691668	0.001
14	385255	50.900095691668	0.002
14	385284	50.950095691668	0.001
14	386152	51.000095691668	0.002
14	386181	51.050095691668	0.001
14	387059	51.100095691668	0.002
14	387088	51.150095691668	0.001
14	387956	51.200095691668	0.002
14	387985	51.250095691668	0.001
14	388847	51.300095691668	0.002
14	388876	51.350095691668	0.001
14	389765	51.400095691668	0.002
14	389794	51.450095691668	0.001
14	390651	51.500095691668	0.002
14	390680	51.550095691668	0.001
14	391558	51.600095691668	0.002
14	391587	51.650095691668	0.001
14	392455	51.700095691668	0.002
14	392484	51.750095691668	0.001
14	393352	51.800095691668	0.002
14	393381	51.850095691668	0.001
14	394265	51.900095691668	0.002
14	394294	51.950095691668	0.001
14	395172	52.000095691668	0.002
14	395201	52.050095691668	0.001
14	396068	52.100095691668	0.002
14	396097	52.150095691668	0.001
14	396986	52.200095691668	0.002
14	397015	52.250095691668	0.001
14	397877	52.300095691668	0.002
14	397906	52.350095691668	0.001
14	398752	52.400095691668	0.002
14	398781	52.450095691668	0.001
14	399670	52.500095691668	0.002
14	399699	52.550095691668	0.001
14	400545	52.600095691668	0.002
14	400574	52.650095691668	0.001
14	401447	52.700095691668	0.002
14	401476	52.750095691668	0.001
14	402365	52.800095691668	0.002
14	402394	52.850095691668	0.001
14	403251	52.900095691668	0.002
14	403280	52.950095691668	0.001
14	404142	53.000095691668	0.002
14	404171	53.050095691668	0.001
14	405039	53.100095691668	0.002
14	405068	53.150095691668	0.001
14	405930	53.200095691668	0.002
14	405959	53.250095691668	0.001
14	406822	53.300095691668	0.002
14	406851	53.350095691668	0.001
14	407719	53.400095691668	0.002
14	407748	53.450095691668	0.001
14	408621	53.500095691668	0.002
14	408650	53.550095691668	0.001
14	409534	53.600095691668	0.002
14	409563	53.650095691668	0.001
14	410431	53.700095691668	0.002
14	410460	53.750095691668	0.001
14	411333	53.800095691668	0.002
14	411362	53.850095691668	0.001
14	412235	53.900095691668	0.002
14	412264	53.950095691668	0.001
14	413132	54.000095691668	0.002
14	413161	54.050095691668	0.001
14	414050	54.100095691668	0.002
14	414079	54.150095691668	0.001
14	414952	54.200095691668	0.002
14	414981	54.250095691668	0.001
14	415865	54.300095691668	0.002
14	415894	54.350095691668	0.001
14	416751	54.400095691668	0.002
14	416780	54.450095691668	0.001
14	417658	54.500095691668	0.002
14	417687	54.550095691668	0.001
14	418544	54.600095691668	0.002
14	418573	54.650095691668	0.001
14	419430	54.700095691668	0.002
14	419459	54.750095691668	0.001
14	420343	54.800095691668	0.002
14	420372	54.850095691668	0.001
14	421261	54.900095691668	0.002
14	421290	54.950095691668	0.001
14	422174	55.000095691668	0.002
14	422203	55.050095691668	0.001
14	423087	55.100095691668	0.002
14	423116	55.150095691668	0.001
14	423989	55.200095691668	0.002
14	424018	55.250095691668	0.001
14	424864	55.300095691668	0.002
14	424893	55.350095691668	0.001
14	425761	55.400095691668	0.002
14	425790	55.450095691668	0.001
14	426658	55.500095691668	0.002
14	426687	55.550095691668	0.001
14	427560	55.600095691668	0.002
14	427589	55.650095691668	0.001
14	428451	55.700095691668	0.002
14	428480	55.750095691668	0.001
14	429348	55.800095691668	0.002
14	429377	55.850095691668	0.001
14	430239	55.900095691668	0.002
14	430268	55.950095691668	0.001
14	431114	56.000095691668	0.002
14	431143	56.050095691668	0.001
14	432021	56.100095691668	0.002
14	432050	56.150095691668	0.001
14	432939	56.200095691668	0.002
14	432968	56.250095691668	0.001
14	433846	56.300095691668	0.002
14	433875	56.350095691668	0.001
14	434721	56.400095691668	0.002
14	434750	56.450095691668	0.001
14	435634	56.500095691668	0.002
14	435663	56.550095691668	0.001
14	436525	56.600095691668	0.002
14	436554	56.650095691668	0.001
14	437427	56.700095691668	0.002
14	437456	56.750095691668	0.001
14	438308	56.800095691668	0.002
14	438337	56.850095691668	0.001
14	439194	56.900095691668	0.002
14	439223	56.950095691668	0.001
14	440091	57.000095691668	0.002
14	440120	57.050095691668	0.001
14	440993	57.100095691668	0.002
14	441022	57.150095691668	0.001
14	441895	57.200095691668	0.002
14	441924	57.250095691668	0.001
14	442786	57.300095691668	0.002
14	442815	57.350095691668	0.001
14	443688	57.400095691668	0.002
14	443717	57.450095691668	0.001
14	444590	57.500095691668	0.002
14	444619	57.550095691668	0.001
14	445487	57.600095691668	0.002
14	445516	57.650095691668	0.001
14	446362	57.700095691668	0.002
14	446391	57.750095691668	0.001
14	447253	57.800095691668	0.002
14	447282	57.850095691668	0.001
14	448133	57.900095691668	0.002
14	448162	57.950095691668	0.001
14	449030	58.000095691668	0.002
14	449059	58.050095691668	0.001
14	449911	58.100095691668	0.002
14	449940	58.150095691668	0.001
14	450819	58.200095691668	0.002
14	450848	58.250095691668	0.001
14	451743	58.300095691668	0.002
14	451772	58.350095691668	0.001
14	452640	58.400095691668	0.002
14	452669	58.450095691668	0.001
14	453531	58.500095691668	0.002
14	453560	58.550095691668	0.001
14	454444	58.600095691668	0.002
14	454473	58.650095691668	0.001
14	455346	58.700095691668	0.002
14	455375	58.750095691668	0.001
14	456248	58.800095691668	0.002
14	456277	58.850095691668	0.001
14	457177	58.900095691668	0.002
14	457206	58.950095691668	0.001
14	458068	59.000095691668	0.002
14	458097	59.050095691668	0.001
14	458959	59.100095691668	0.002
14	458988	59.150095691668	0.001
14	459840	59.200095691668	0.002
14	459869	59.250095691668	0.001
14	460737	59.300095691668	0.002
14	460766	59.350095691668	0.001
14	461623	59.400095691668	0.002
14	461652	59.450095691668	0.001
14	462509	59.500095691668	0.002
14	462538	59.550095691668	0.001
14	463416	59.600095691668	0.002
14	463445	59.650095691668	0.001
14	464302	59.700095691668	0.002
14	464331	59.750095691668	0.001
14	465193	59.800095691668	0.002
14	465222	59.850095691668	0.001
14	466084	59.900095691668	0.002
14	466113	59.950095691668	0.001
14	466965	60.000095691668	0.002
14	466994	60.050095691668	0.001
14	467878	60.100095691668	0.002
14	467907	60.150095691668	0.001
14	468774	60.200095691668	0.002
14	468803	60.250095691668	0.001
14	469666	60.300095691668	0.002
14	469695	60.350095691668	0.001
14	470574	60.400095691668	0.002
14	470603	60.450095691668	0.001
14	471481	60.500095691668	0.002
14	471510	60.550095691668	0.001
14	472367	60.600095691668	0.002
14	472396	60.650095691668	0.001
14	473264	60.700095691668	0.002
14	473293	60.750095691668	0.001
14	474171	60.800095691668	0.002
14	474200	60.850095691668	0.001
14	475046	60.900095691668	0.002
14	475075	60.950095691668	0.001
14	475959	61.000095691668	0.002
14	475988	61.050095691668	0.001
14	476834	61.100095691668	0.002
14	476863	61.150095691668	0.001
14	477720	61.200095691668	0.002
14	477749	61.250095691668	0.001
14	478606	61.300095691668	0.002
14	478635	61.350095691668	0.001
14	479508	61.400095691668	0.002
14	479537	61.450095691668	0.001
14	480399	61.500095691668	0.002
14	480428	61.550095691668	0.001
14	481305	61.600095691668	0.002
14	481328	61.650095691668	0.001
14	481924	61.700095691668	0.002
14	481947	61.750095691668	0.001
14	482556	61.800095691668	0.002
14	482579	61.850095691668	0.001
14	483188	61.900095691668	0.002
14	483211	61.950095691668	0.001
14	483798	62.000095691668	0.002
14	483821	62.050095691668	0.001
14	484430	62.100095691668	0.002
14	484453	62.150095691668	0.001
14	485062	62.200095691668	0.002
14	485085	62.250095691668	0.001
14	485672	62.300095691668	0.002
14	485695	62.350095691668	0.001
14	486295	62.400095691668	0.002
14	486318	62.450095691668	0.001
14	486931	62.500095691668	0.002
14	486954	62.550095691668	0.001
14	487536	62.600095691668	0.002
14	487559	62.650095691668	0.001
14	488168	62.700095691668	0.002
14	488191	62.750095691668	0.001
14	488773	62.800095691668	0.002
14	488796	62.850095691668	0.001
14	489405	62.900095691668	0.002
14	489428	62.950095691668	0.001
14	490024	63.000095691668	0.002
14	490047	63.050095691668	0.001
14	490643	63.100095691668	0.002
14	490666	63.150095691668	0.001
14	491266	63.200095691668	0.002
14	491289	63.250095691668	0.001
14	491854	63.300095691668	0.002
14	491877	63.350095691668	0.001
14	492473	63.400095691668	0.002
14	492496	63.450095691668	0.001
14	493109	63.500095691668	0.002
14	493132	63.550095691668	0.001
14	493741	63.600095691668	0.002
14	493764	63.650095691668	0.001
14	494355	63.700095691668	0.002
14	494378	63.750095691668	0.001
14	494974	63.800095691668	0.002
14	494997	63.850095691668	0.001
14	495566	63.900095691668	0.002
14	495589	63.950095691668	0.001
14	496202	64.000095691668	0.002
14	496225	64.050095691668	0.001
14	496820	64.100095691668	0.002
14	496843	64.150095691668	0.001
14	497425	64.200095691668	0.002
14	497448	64.250095691668	0.001
14	498070	64.300095691668	0.002
14	498093	64.350095691668	0.001
14	498706	64.400095691668	0.002
14	498729	64.450095691668	0.001
14	499329	64.500095691668	0.002
14	499352	64.550095691668	0.001
14	499939	64.600095691668	0.002
14	499957	64.650095691668	0.001
14	500333	64.700095691668	0.002
14	500351	64.750095691668	0.001
14	500727	64.800095691668	0.002
14	500745	64.850095691668	0.001
14	501121	64.900095691668	0.002
14	501139	64.950095691668	0.001
14	501508	65.000095691668	0.002
14	501526	65.050095691668	0.001
14	501912	65.100095691668	0.002
14	501930	65.150095691668	0.001
14	502296	65.200095691668	0.002
14	502314	65.250095691668	0.001
14	502700	65.300095691668	0.002
14	502718	65.350095691668	0.001
14	503094	65.400095691668	0.002
14	503112	65.450095691668	0.001
14	503498	65.500095691668	0.002
14	503516	65.550095691668	0.001
14	503878	65.600095691668	0.002
14	503896	65.650095691668	0.001
14	504272	65.700095691668	0.002
14	504290	65.750095691668	0.001
14	504676	65.800095691668	0.002
14	504694	65.850095691668	0.001
14	505070	65.900095691668	0.002
14	505088	65.950095691668	0.001
14	505457	66.000095691668	0.002
14	505475	66.050095691668	0.001
14	505834	66.100095691668	0.002
14	505852	66.150095691668	0.001
14	506228	66.200095691668	0.002
14	506246	66.250095691668	0.001
14	506612	66.300095691668	0.002
14	506630	66.350095691668	0.001
14	507016	66.400095691668	0.002
14	507034	66.450095691668	0.001
14	507420	66.500095691668	0.002
14	507438	66.550095691668	0.001
14	507804	66.600095691668	0.002
14	507822	66.650095691668	0.001
14	508188	66.700095691668	0.002
14	508206	66.750095691668	0.001
14	508592	66.800095691668	0.002
14	508610	66.850095691668	0.001
14	508986	66.900095691668	0.002
14	509004	66.950095691668	0.001
14	509390	67.000095691668	0.002
14	509408	67.050095691668	0.001
14	509774	67.100095691668	0.002
14	509792	67.150095691668	0.001
14	510151	67.200095691668	0.002
14	510169	67.250095691668	0.001
14	510555	67.300095691668	0.002
14	510573	67.350095691668	0.001
14	510932	67.400095691668	0.002
14	510950	67.450095691668	0.001
14	511312	67.500095691668	0.002
14	511330	67.550095691668	0.001
14	511696	67.600095691668	0.002
14	511714	67.650095691668	0.001
14	512090	67.700095691668	0.002
14	512108	67.750095691668	0.001
14	512474	67.800095691668	0.002
14	512486	67.850095691668	0.001
14	512684	67.900095691668	0.002
14	512696	67.950095691668	0.001
14	512901	68.000095691668	0.002
14	512913	68.050095691668	0.001
14	513118	68.100095691668	0.002
14	513130	68.150095691668	0.001
14	513335	68.200095691668	0.002
14	513347	68.250095691668	0.001
14	513545	68.300095691668	0.002
14	513557	68.350095691668	0.001
14	513755	68.400095691668	0.002
14	513767	68.450095691668	0.001
14	513972	68.500095691668	0.002
14	513984	68.550095691668	0.001
14	514189	68.600095691668	0.002
14	514201	68.650095691668	0.001
14	514392	68.700095691668	0.002
14	514404	68.750095691668	0.001
14	514609	68.800095691668	0.002
14	514621	68.850095691668	0.001
14	514819	68.900095691668	0.002
14	514831	68.950095691668	0.001
14	515022	69.000095691668	0.002
14	515034	69.050095691668	0.001
14	515232	69.100095691668	0.002
14	515244	69.150095691668	0.001
14	515449	69.200095691668	0.002
14	515461	69.250095691668	0.001
14	515666	69.300095691668	0.002
14	515678	69.350095691668	0.001
14	515876	69.400095691668	0.002
14	515888	69.450095691668	0.001
14	516093	69.500095691668	0.002
14	516105	69.550095691668	0.001
14	516310	69.600095691668	0.002
14	516322	69.650095691668	0.001
14	516520	69.700095691668	0.002
14	516532	69.750095691668	0.001
14	516730	69.800095691668	0.002
14	516742	69.850095691668	0.001
14	516940	69.900095691668	0.002
14	516952	69.950095691668	0.001
14	517150	70.000095691668	0.002
14	517162	70.050095691668	0.001
14	517353	70.100095691668	0.002
14	517365	70.150095691668	0.001
14	517563	70.200095691668	0.002
14	517575	70.250095691668	0.001
14	517773	70.300095691668	0.002
14	517785	70.350095691668	0.001
14	517990	70.400095691668	0.002
14	518002	70.450095691668	0.001
14	518207	70.500095691668	0.002
14	518219	70.550095691668	0.001
14	518417	70.600095691668	0.002
14	518429	70.650095691668	0.001
14	518634	70.700095691668	0.002
14	518640	70.750095691668	0.001
14	518714	70.800095691668	0.002
14	518720	70.850095691668	0.001
14	518794	70.900095691668	0.002
14	518800	70.950095691668	0.001
14	518874	71.000095691668	0.002
14	518880	71.050095691668	0.001
14	518954	71.100095691668	0.002
14	518960	71.150095691668	0.001
14	519034	71.200095691668	0.002
14	519040	71.250095691668	0.001
14	519114	71.300095691668	0.002
14	519120	71.350095691668	0.001
14	519194	71.400095691668	0.002
14	519200	71.450095691668	0.001
14	519274	71.500095691668	0.002
14	519280	71.550095691668	0.001
14	519354	71.600095691668	0.002
14	519360	71.650095691668	0.001
14	519434	71.700095691668	0.002
14	519440	71.750095691668	0.001
14	519514	71.800095691668	0.002
14	519520	71.850095691668	0.001
14	519594	71.900095691668	0.002
14	519600	71.950095691668	0.001
14	519674	72.000095691668	0.002
14	519680	72.050095691668	0.001
14	519754	72.100095691668	0.002
14	519760	72.150095691668	0.001
14	519834	72.200095691668	0.002
14	519840	72.250095691668	0.001
14	519914	72.300095691668	0.002
14	519920	72.350095691668	0.001
14	519994	72.400095691668	0.002
14	520000	72.450095691668	0.001
14	520074	72.500095691668	0.002
14	520080	72.550095691668	0.001
14	520154	72.600095691668	0.002
14	520160	72.650095691668	0.001
14	520234	72.700095691668	0.002
14	520240	72.750095691668	0.001
14	520314	72.800095691668	0.002
14	520320	72.850095691668	0.001
14	520394	72.900095691668	0.002
14	520400	72.950095691668	0.001
14	520474	73.000095691668	0.002
14	520480	73.050095691668	0.001
14	520554	73.100095691668	0.002
14	520560	73.150095691668	0.001
14	520634	73.200095691668	0.002
14	520640	73.250095691668	0.001
14	520714	73.300095691668	0.002
14	520720	73.350095691668	0.001
14	520794	73.400095691668	0.002
14	520800	73.450095691668	0.001
14	520874	73.500095691668	0.002
14	520880	73.550095691668	0.001
14	520954	73.600095691668	0.002
14	520960	73.650095691668	0.001
14	521034	73.700095691668	0.002
14	521035	73.750095691668	0.001
14	521036	73.800095691668	0.002
14	521037	73.850095691668	0.001
14	521038	73.900095691668	0.002
14	521039	73.950095691668	0.001
14	521040	74.000095691668	0.002
14	521041	74.050095691668	0.001
14	521042	74.100095691668	0.002
14	521043	74.150095691668	0.001
14	521044	74.200095691668	0.002
14	521045	74.250095691668	0.001
14	521046	74.300095691668	0.002
14	521047	74.350095691668	0.001
14	521048	74.400095691668	0.002
14	521049	74.450095691668	0.001
14	521050	74.500095691668	0.002
14	521051	74.550095691668	0.001
14	521052	74.600095691668	0.002
14	521053	74.650095691668	0.001
14	521054	74.700095691668	0.002
14	521055	74.750095691668	0.001
14	521056	74.800095691668	0.002
14	521057	74.850095691668	0.001
14	521058	74.900095691668	0.002
14	521059	74.950095691668	0.001
14	521060	75.000095691668	0.002
14	521061	75.050095691668	0.001
14	521062	75.100095691668	0.002
14	521063	75.150095691668	0.001
14	521064	75.200095691668	0.002
14	521065	75.250095691668	0.001
14	521066	75.300095691668	0.002
14	521067	75.350095691668	0.001
14	521068	75.400095691668	0.002
14	521069	75.450095691668	0.001
14	521070	75.500095691668	0.002
14	521071	75.550095691668	0.001
14	521072	75.600095691668	0.002
14	521073	75.650095691668	0.001
14	521074	75.700095691668	0.002
14	521075	75.750095691668	0.001
14	521076	75.800095691668	0.002
14	521077	75.850095691668	0.001
14	521078	75.900095691668	0.002
14	521079	75.950095691668	0.001
