version 2
run VoIP-50ms_440B-6-20160923-14:16:45-14740
attr configname VoIP-50ms_440B
attr datetime 20160923-14:16:45
attr experiment VoIP-50ms_440B
attr inifile omnetpp.ini
attr iterationvars ""
attr iterationvars2 $repetition=6
attr measurement ""
attr network SymScenerio
attr processid 14740
attr repetition 6
attr replication #6
attr resultdir results
attr runnumber 6
attr seedset 6
param **.coreDebug false
param **.debug false
param *.**.nic.mac1609_4.bitrate 18Mbps
param *.**.nic.mac1609_4.txPower 20mW
param *.**.nic.mac1609_4.useServiceChannel true
param *.**.nic.phy80211p.analogueModels "xmldoc(\"config.xml\")"
param *.**.nic.phy80211p.decider "xmldoc(\"config.xml\")"
param *.**.nic.phy80211p.sensitivity -89dBm
param *.**.nic.phy80211p.thermalNoise -110dBm
param *.**.nic.phy80211p.usePropagationDelay true
param *.**.nic.phy80211p.useThermalNoise true
param *.annotations.draw false
param *.connectionManager.alpha 2.0
param *.connectionManager.carrierFrequency "5.890e9 Hz"
param *.connectionManager.pMax 20mW
param *.connectionManager.sat -89dBm
param *.connectionManager.sendDirect true
param *.manager.autoShutdown true
param *.manager.host "\"localhost\""
param *.manager.launchConfig "xmldoc(\"map.launchd.xml\")"
param *.manager.margin 25
param *.manager.moduleDisplayString "\"\""
param *.manager.moduleName "\"node\""
param *.manager.moduleType "\"symulacja.veins.nodes.Car\""
param *.manager.port 9999
param *.manager.updateInterval 0.1s
param *.node[*].appl.beaconInterval 1s
param *.node[*].appl.beaconPriority 3
param *.node[*].appl.dataOnSch false
param *.node[*].appl.dataPriority 2
param *.node[*].appl.debug false
param *.node[*].appl.maxOffset 0.005s
param *.node[*].appl.sendBeacons false
param *.node[*].appl.sendData true
param *.node[*].appl.sendVoIP true
param *.node[*].appl.voipInterval 0.050s
param *.node[*].appl.voipLengthBits 3520bit
param *.node[*].appl.voipOnSch true
param *.node[*].appl.voipPriority 3
param *.node[*].applType "\"Sym11p\""
param *.node[*].veinsmobility.x 0
param *.node[*].veinsmobility.y 0
param *.node[*].veinsmobility.z 1.895
param *.node[*].veinsmobilityType "\"symulacja.veins.modules.mobility.traci.TraCIMobility\""
param *.playgroundSizeX 9000m
param *.playgroundSizeY 9000m
param *.playgroundSizeZ 50m
param *.rsu[*].appl.beaconInterval 1s
param *.rsu[*].appl.beaconPriority 3
param *.rsu[*].appl.dataOnSch false
param *.rsu[*].appl.dataPriority 2
param *.rsu[*].appl.debug false
param *.rsu[*].appl.headerLength "256 bit"
param *.rsu[*].appl.maxOffset 0.005s
param *.rsu[*].appl.sendBeacons false
param *.rsu[*].appl.sendData false
param *.rsu[*].appl.sendVoIP false
param *.rsu[*].applType "\"SymRSU11p\""
param *.rsu[0].mobility.x 2160
param *.rsu[0].mobility.y 3100
param *.rsu[0].mobility.z 3
param *.world.use2D false
param *.world.useTorus false

vector 14  SymScenerio.rsu[0].nic.mac1609_4  "Interwały kanałów"  ETV
vector 23  SymScenerio.node[0].veinsmobility  posx  ETV
vector 24  SymScenerio.node[0].veinsmobility  posy  ETV
vector 22  SymScenerio.node[0].nic.mac1609_4  "Interwały kanałów"  ETV
vector 25  SymScenerio.node[0].veinsmobility  speed  ETV
vector 15  SymScenerio.node[0].appl  "TX Packets"  ETV
vector 16  SymScenerio.node[0].appl  "TX Total"  ETV
vector 17  SymScenerio.node[0].appl  Pakietyzacja  ETV
vector 5  SymScenerio.rsu[0].appl  nodeALL:vector  ETV
attr source  nodeALL
attr title  "Opoznienia ALL, vector"
vector 9  SymScenerio.rsu[0].appl  "RX Packet"  ETV
vector 0  SymScenerio.rsu[0].appl  node0:vector  ETV
attr source  node0
attr title  "Opoznienia node0, vector"
vector 26  SymScenerio.node[0].veinsmobility  acceleration  ETV
vector 27  SymScenerio.node[0].veinsmobility  co2emission  ETV
vector 36  SymScenerio.node[1].veinsmobility  posx  ETV
vector 37  SymScenerio.node[1].veinsmobility  posy  ETV
vector 35  SymScenerio.node[1].nic.mac1609_4  "Interwały kanałów"  ETV
vector 38  SymScenerio.node[1].veinsmobility  speed  ETV
vector 39  SymScenerio.node[1].veinsmobility  acceleration  ETV
vector 40  SymScenerio.node[1].veinsmobility  co2emission  ETV
vector 28  SymScenerio.node[1].appl  "TX Packets"  ETV
vector 29  SymScenerio.node[1].appl  "TX Total"  ETV
vector 30  SymScenerio.node[1].appl  Pakietyzacja  ETV
vector 1  SymScenerio.rsu[0].appl  node1:vector  ETV
attr source  node1
attr title  "Opoznienia node1, vector"
vector 49  SymScenerio.node[2].veinsmobility  posx  ETV
vector 50  SymScenerio.node[2].veinsmobility  posy  ETV
vector 48  SymScenerio.node[2].nic.mac1609_4  "Interwały kanałów"  ETV
vector 41  SymScenerio.node[2].appl  "TX Packets"  ETV
vector 42  SymScenerio.node[2].appl  "TX Total"  ETV
vector 43  SymScenerio.node[2].appl  Pakietyzacja  ETV
vector 2  SymScenerio.rsu[0].appl  node2:vector  ETV
attr source  node2
attr title  "Opoznienia node2, vector"
vector 51  SymScenerio.node[2].veinsmobility  speed  ETV
vector 52  SymScenerio.node[2].veinsmobility  acceleration  ETV
vector 53  SymScenerio.node[2].veinsmobility  co2emission  ETV
vector 62  SymScenerio.node[3].veinsmobility  posx  ETV
vector 63  SymScenerio.node[3].veinsmobility  posy  ETV
vector 61  SymScenerio.node[3].nic.mac1609_4  "Interwały kanałów"  ETV
vector 64  SymScenerio.node[3].veinsmobility  speed  ETV
vector 65  SymScenerio.node[3].veinsmobility  acceleration  ETV
vector 66  SymScenerio.node[3].veinsmobility  co2emission  ETV
vector 54  SymScenerio.node[3].appl  "TX Packets"  ETV
vector 55  SymScenerio.node[3].appl  "TX Total"  ETV
vector 56  SymScenerio.node[3].appl  Pakietyzacja  ETV
vector 3  SymScenerio.rsu[0].appl  node3:vector  ETV
attr source  node3
attr title  "Opoznienia node3, vector"
vector 75  SymScenerio.node[4].veinsmobility  posx  ETV
vector 76  SymScenerio.node[4].veinsmobility  posy  ETV
vector 74  SymScenerio.node[4].nic.mac1609_4  "Interwały kanałów"  ETV
vector 77  SymScenerio.node[4].veinsmobility  speed  ETV
vector 78  SymScenerio.node[4].veinsmobility  acceleration  ETV
vector 79  SymScenerio.node[4].veinsmobility  co2emission  ETV
vector 67  SymScenerio.node[4].appl  "TX Packets"  ETV
vector 68  SymScenerio.node[4].appl  "TX Total"  ETV
vector 69  SymScenerio.node[4].appl  Pakietyzacja  ETV
vector 4  SymScenerio.rsu[0].appl  node4:vector  ETV
attr source  node4
attr title  "Opoznienia node4, vector"
17	12	0.253828338161	1.002
17	30	0.303828338161	1.002
17	34	0.353828338161	1.002
17	65	0.403828338161	1.002
17	69	0.453828338161	1.002
17	100	0.503828338161	1.002
17	104	0.553828338161	1.002
17	135	0.603828338161	1.002
17	139	0.653828338161	1.002
17	170	0.703828338161	1.002
17	174	0.753828338161	1.002
17	205	0.803828338161	1.002
17	209	0.853828338161	1.002
17	240	0.903828338161	1.002
17	244	0.953828338161	1.002
17	275	1.003828338161	1.002
17	279	1.053828338161	1.002
17	310	1.103828338161	1.002
17	314	1.153828338161	1.002
17	345	1.203828338161	1.002
17	349	1.253828338161	1.002
17	380	1.303828338161	1.002
17	384	1.353828338161	1.002
17	415	1.403828338161	1.002
17	419	1.453828338161	1.002
17	450	1.503828338161	1.002
17	454	1.553828338161	1.002
17	485	1.603828338161	1.002
17	489	1.653828338161	1.002
17	520	1.703828338161	1.002
17	524	1.753828338161	1.002
17	555	1.803828338161	1.002
17	559	1.853828338161	1.002
17	590	1.903828338161	1.002
17	594	1.953828338161	1.002
17	625	2.003828338161	1.002
17	629	2.053828338161	1.002
17	660	2.103828338161	1.002
17	664	2.153828338161	1.002
17	695	2.203828338161	1.002
17	699	2.253828338161	1.002
17	730	2.303828338161	1.002
17	734	2.353828338161	1.002
17	765	2.403828338161	1.002
17	769	2.453828338161	1.002
17	800	2.503828338161	1.002
17	804	2.553828338161	1.002
17	835	2.603828338161	1.002
17	839	2.653828338161	1.002
17	870	2.703828338161	1.002
17	874	2.753828338161	1.002
17	905	2.803828338161	1.002
17	909	2.853828338161	1.002
17	940	2.903828338161	1.002
17	944	2.953828338161	1.002
17	975	3.003828338161	1.002
17	979	3.053828338161	1.002
17	1010	3.103828338161	1.002
17	1015	3.153828338161	1.002
17	1059	3.203828338161	1.002
17	1064	3.253828338161	1.002
17	1108	3.303828338161	1.002
17	1113	3.353828338161	1.002
17	1157	3.403828338161	1.002
17	1162	3.453828338161	1.002
17	1206	3.503828338161	1.002
17	1211	3.553828338161	1.002
17	1255	3.603828338161	1.002
17	1260	3.653828338161	1.002
17	1304	3.703828338161	1.002
17	1309	3.753828338161	1.002
17	1353	3.803828338161	1.002
17	1358	3.853828338161	1.002
17	1402	3.903828338161	1.002
17	1407	3.953828338161	1.002
17	1472	4.003828338161	1.002
17	1479	4.053828338161	1.002
17	1563	4.103828338161	1.002
17	1570	4.153828338161	1.002
17	1654	4.203828338161	1.002
17	1661	4.253828338161	1.002
17	1745	4.303828338161	1.002
17	1752	4.353828338161	1.002
17	1836	4.403828338161	1.002
17	1843	4.453828338161	1.002
17	1927	4.503828338161	1.002
17	1934	4.553828338161	1.002
17	2018	4.603828338161	1.002
17	2025	4.653828338161	1.002
17	2109	4.703828338161	1.002
17	2116	4.753828338161	1.002
17	2200	4.803828338161	1.002
17	2207	4.853828338161	1.002
17	2291	4.903828338161	1.002
17	2298	4.953828338161	1.002
17	2382	5.003828338161	1.002
17	2389	5.053828338161	1.002
17	2473	5.103828338161	1.002
17	2480	5.153828338161	1.002
17	2564	5.203828338161	1.002
17	2571	5.253828338161	1.002
17	2655	5.303828338161	1.002
17	2662	5.353828338161	1.002
17	2746	5.403828338161	1.002
17	2753	5.453828338161	1.002
17	2837	5.503828338161	1.002
17	2844	5.553828338161	1.002
17	2928	5.603828338161	1.002
17	2935	5.653828338161	1.002
17	3019	5.703828338161	1.002
17	3026	5.753828338161	1.002
17	3110	5.803828338161	1.002
17	3117	5.853828338161	1.002
17	3201	5.903828338161	1.002
17	3208	5.953828338161	1.002
17	3292	6.003828338161	1.002
17	3299	6.053828338161	1.002
17	3383	6.103828338161	1.002
17	3391	6.153828338161	1.002
17	3527	6.203828338161	1.002
17	3537	6.253828338161	1.002
17	3688	6.303828338161	1.002
17	3698	6.353828338161	1.002
17	3859	6.403828338161	1.002
17	3869	6.453828338161	1.002
17	4030	6.503828338161	1.002
17	4040	6.553828338161	1.002
17	4191	6.603828338161	1.002
17	4201	6.653828338161	1.002
17	4362	6.703828338161	1.002
17	4372	6.753828338161	1.002
17	4533	6.803828338161	1.002
17	4543	6.853828338161	1.002
17	4704	6.903828338161	1.002
17	4714	6.953828338161	1.002
17	4865	7.003828338161	1.002
17	4875	7.053828338161	1.002
17	5036	7.103828338161	1.002
17	5046	7.153828338161	1.002
17	5207	7.203828338161	1.002
17	5217	7.253828338161	1.002
17	5378	7.303828338161	1.002
17	5388	7.353828338161	1.002
17	5539	7.403828338161	1.002
17	5549	7.453828338161	1.002
17	5700	7.503828338161	1.002
17	5710	7.553828338161	1.002
17	5861	7.603828338161	1.002
17	5871	7.653828338161	1.002
17	6022	7.703828338161	1.002
17	6032	7.753828338161	1.002
17	6183	7.803828338161	1.002
17	6193	7.853828338161	1.002
17	6344	7.903828338161	1.002
17	6354	7.953828338161	1.002
17	6515	8.003828338161	1.002
17	6525	8.053828338161	1.002
17	6686	8.103828338161	1.002
17	6696	8.153828338161	1.002
17	6847	8.203828338161	1.002
17	6857	8.253828338161	1.002
17	7018	8.303828338161	1.002
17	7028	8.353828338161	1.002
17	7189	8.403828338161	1.002
17	7199	8.453828338161	1.002
17	7360	8.503828338161	1.002
17	7370	8.553828338161	1.002
17	7531	8.603828338161	1.002
17	7541	8.653828338161	1.002
17	7702	8.703828338161	1.002
17	7712	8.753828338161	1.002
17	7863	8.803828338161	1.002
17	7873	8.853828338161	1.002
17	8034	8.903828338161	1.002
17	8044	8.953828338161	1.002
17	8205	9.003828338161	1.002
17	8215	9.053828338161	1.002
17	8376	9.103828338161	1.002
17	8387	9.153828338161	1.002
17	8573	9.203828338161	1.002
17	8584	9.253828338161	1.002
17	8782	9.303828338161	1.002
17	8793	9.353828338161	1.002
17	8979	9.403828338161	1.002
17	8990	9.453828338161	1.002
17	9175	9.503828338161	1.002
17	9186	9.553828338161	1.002
17	9384	9.603828338161	1.002
17	9395	9.653828338161	1.002
17	9593	9.703828338161	1.002
17	9604	9.753828338161	1.002
17	9789	9.803828338161	1.002
17	9800	9.853828338161	1.002
17	10031	9.903828338161	1.002
17	10044	9.953828338161	1.002
17	10293	10.003828338161	1.002
17	10306	10.053828338161	1.002
17	10546	10.103828338161	1.002
17	10559	10.153828338161	1.002
17	10821	10.203828338161	1.002
17	10834	10.253828338161	1.002
17	11083	10.303828338161	1.002
17	11096	10.353828338161	1.002
17	11345	10.403828338161	1.002
17	11358	10.453828338161	1.002
17	11620	10.503828338161	1.002
17	11633	10.553828338161	1.002
17	11869	10.603828338161	1.002
17	11882	10.653828338161	1.002
17	12131	10.703828338161	1.002
17	12144	10.753828338161	1.002
17	12393	10.803828338161	1.002
17	12406	10.853828338161	1.002
17	12655	10.903828338161	1.002
17	12668	10.953828338161	1.002
17	12930	11.003828338161	1.002
17	12943	11.053828338161	1.002
17	13205	11.103828338161	1.002
17	13218	11.153828338161	1.002
17	13480	11.203828338161	1.002
17	13493	11.253828338161	1.002
17	13755	11.303828338161	1.002
17	13768	11.353828338161	1.002
17	14017	11.403828338161	1.002
17	14030	11.453828338161	1.002
17	14292	11.503828338161	1.002
17	14305	11.553828338161	1.002
17	14554	11.603828338161	1.002
17	14567	11.653828338161	1.002
17	14816	11.703828338161	1.002
17	14829	11.753828338161	1.002
17	15069	11.803828338161	1.002
17	15082	11.853828338161	1.002
17	15331	11.903828338161	1.002
17	15344	11.953828338161	1.002
17	15606	12.003828338161	1.002
17	15619	12.053828338161	1.002
17	15881	12.103828338161	1.002
17	15895	12.153828338161	1.002
17	16190	12.203828338161	1.002
17	16204	12.253828338161	1.002
17	16515	12.303828338161	1.002
17	16529	12.353828338161	1.002
17	16824	12.403828338161	1.002
17	16838	12.453828338161	1.002
17	17134	12.503828338161	1.002
17	17148	12.553828338161	1.002
17	17443	12.603828338161	1.002
17	17457	12.653828338161	1.002
17	17752	12.703828338161	1.002
17	17766	12.753828338161	1.002
17	18077	12.803828338161	1.002
17	18091	12.853828338161	1.002
17	18402	12.903828338161	1.002
17	18416	12.953828338161	1.002
17	18712	13.003828338161	1.002
17	18726	13.053828338161	1.002
17	19060	13.103828338161	1.002
17	19076	13.153828338161	1.002
17	19436	13.203828338161	1.002
17	19452	13.253828338161	1.002
17	19812	13.303828338161	1.002
17	19828	13.353828338161	1.002
17	20199	13.403828338161	1.002
17	20215	13.453828338161	1.002
17	20602	13.503828338161	1.002
17	20618	13.553828338161	1.002
17	20973	13.603828338161	1.002
17	20989	13.653828338161	1.002
17	21376	13.703828338161	1.002
17	21392	13.753828338161	1.002
17	21764	13.803828338161	1.002
17	21780	13.853828338161	1.002
17	22140	13.903828338161	1.002
17	22156	13.953828338161	1.002
17	22511	14.003828338161	1.002
17	22527	14.053828338161	1.002
17	22898	14.103828338161	1.002
17	22914	14.153828338161	1.002
17	23274	14.203828338161	1.002
17	23290	14.253828338161	1.002
17	23646	14.303828338161	1.002
17	23662	14.353828338161	1.002
17	24033	14.403828338161	1.002
17	24049	14.453828338161	1.002
17	24409	14.503828338161	1.002
17	24425	14.553828338161	1.002
17	24780	14.603828338161	1.002
17	24796	14.653828338161	1.002
17	25167	14.703828338161	1.002
17	25183	14.753828338161	1.002
17	25570	14.803828338161	1.002
17	25586	14.853828338161	1.002
17	25946	14.903828338161	1.002
17	25962	14.953828338161	1.002
17	26349	15.003828338161	1.002
17	26365	15.053828338161	1.002
17	26736	15.103828338161	1.002
17	26752	15.153828338161	1.002
17	27139	15.203828338161	1.002
17	27155	15.253828338161	1.002
17	27542	15.303828338161	1.002
17	27558	15.353828338161	1.002
17	27929	15.403828338161	1.002
17	27945	15.453828338161	1.002
17	28316	15.503828338161	1.002
17	28332	15.553828338161	1.002
17	28681	15.603828338161	1.002
17	28697	15.653828338161	1.002
17	29068	15.703828338161	1.002
17	29084	15.753828338161	1.002
17	29455	15.803828338161	1.002
17	29471	15.853828338161	1.002
17	29831	15.903828338161	1.002
17	29847	15.953828338161	1.002
17	30218	16.003828338161	1.002
17	30234	16.053828338161	1.002
17	30594	16.103828338161	1.002
17	30610	16.153828338161	1.002
17	30965	16.203828338161	1.002
17	30981	16.253828338161	1.002
17	31341	16.303828338161	1.002
17	31357	16.353828338161	1.002
17	31712	16.403828338161	1.002
17	31728	16.453828338161	1.002
17	32088	16.503828338161	1.002
17	32104	16.553828338161	1.002
17	32475	16.603828338161	1.002
17	32491	16.653828338161	1.002
17	32851	16.703828338161	1.002
17	32867	16.753828338161	1.002
17	33238	16.803828338161	1.002
17	33254	16.853828338161	1.002
17	33641	16.903828338161	1.002
17	33657	16.953828338161	1.002
17	34044	17.003828338161	1.002
17	34060	17.053828338161	1.002
17	34431	17.103828338161	1.002
17	34447	17.153828338161	1.002
17	34807	17.203828338161	1.002
17	34823	17.253828338161	1.002
17	35178	17.303828338161	1.002
17	35194	17.353828338161	1.002
17	35565	17.403828338161	1.002
17	35581	17.453828338161	1.002
17	35941	17.503828338161	1.002
17	35957	17.553828338161	1.002
17	36328	17.603828338161	1.002
17	36344	17.653828338161	1.002
17	36704	17.703828338161	1.002
17	36720	17.753828338161	1.002
17	37069	17.803828338161	1.002
17	37085	17.853828338161	1.002
17	37456	17.903828338161	1.002
17	37472	17.953828338161	1.002
17	37843	18.003828338161	1.002
17	37859	18.053828338161	1.002
17	38246	18.103828338161	1.002
17	38262	18.153828338161	1.002
17	38617	18.203828338161	1.002
17	38633	18.253828338161	1.002
17	38993	18.303828338161	1.002
17	39009	18.353828338161	1.002
17	39380	18.403828338161	1.002
17	39396	18.453828338161	1.002
17	39756	18.503828338161	1.002
17	39772	18.553828338161	1.002
17	40132	18.603828338161	1.002
17	40148	18.653828338161	1.002
17	40508	18.703828338161	1.002
17	40524	18.753828338161	1.002
17	40895	18.803828338161	1.002
17	40911	18.853828338161	1.002
17	41282	18.903828338161	1.002
17	41298	18.953828338161	1.002
17	41653	19.003828338161	1.002
17	41669	19.053828338161	1.002
17	42040	19.103828338161	1.002
17	42056	19.153828338161	1.002
17	42427	19.203828338161	1.002
17	42443	19.253828338161	1.002
17	42814	19.303828338161	1.002
17	42830	19.353828338161	1.002
17	43201	19.403828338161	1.002
17	43217	19.453828338161	1.002
17	43588	19.503828338161	1.002
17	43604	19.553828338161	1.002
17	43975	19.603828338161	1.002
17	43991	19.653828338161	1.002
17	44362	19.703828338161	1.002
17	44378	19.753828338161	1.002
17	44733	19.803828338161	1.002
17	44749	19.853828338161	1.002
17	45109	19.903828338161	1.002
17	45125	19.953828338161	1.002
17	45485	20.003828338161	1.002
17	45501	20.053828338161	1.002
17	45872	20.103828338161	1.002
17	45888	20.153828338161	1.002
17	46248	20.203828338161	1.002
17	46264	20.253828338161	1.002
17	46635	20.303828338161	1.002
17	46651	20.353828338161	1.002
17	47011	20.403828338161	1.002
17	47027	20.453828338161	1.002
17	47387	20.503828338161	1.002
17	47403	20.553828338161	1.002
17	47774	20.603828338161	1.002
17	47790	20.653828338161	1.002
17	48150	20.703828338161	1.002
17	48166	20.753828338161	1.002
17	48537	20.803828338161	1.002
17	48553	20.853828338161	1.002
17	48924	20.903828338161	1.002
17	48940	20.953828338161	1.002
17	49311	21.003828338161	1.002
17	49327	21.053828338161	1.002
17	49682	21.103828338161	1.002
17	49698	21.153828338161	1.002
17	50058	21.203828338161	1.002
17	50074	21.253828338161	1.002
17	50445	21.303828338161	1.002
17	50461	21.353828338161	1.002
17	50848	21.403828338161	1.002
17	50864	21.453828338161	1.002
17	51235	21.503828338161	1.002
17	51251	21.553828338161	1.002
17	51606	21.603828338161	1.002
17	51622	21.653828338161	1.002
17	51977	21.703828338161	1.002
17	51993	21.753828338161	1.002
17	52380	21.803828338161	1.002
17	52396	21.853828338161	1.002
17	52751	21.903828338161	1.002
17	52767	21.953828338161	1.002
17	53122	22.003828338161	1.002
17	53138	22.053828338161	1.002
17	53509	22.103828338161	1.002
17	53525	22.153828338161	1.002
17	53896	22.203828338161	1.002
17	53912	22.253828338161	1.002
17	54283	22.303828338161	1.002
17	54299	22.353828338161	1.002
17	54659	22.403828338161	1.002
17	54675	22.453828338161	1.002
17	55046	22.503828338161	1.002
17	55062	22.553828338161	1.002
17	55433	22.603828338161	1.002
17	55449	22.653828338161	1.002
17	55836	22.703828338161	1.002
17	55852	22.753828338161	1.002
17	56223	22.803828338161	1.002
17	56239	22.853828338161	1.002
17	56626	22.903828338161	1.002
17	56642	22.953828338161	1.002
17	57013	23.003828338161	1.002
17	57029	23.053828338161	1.002
17	57378	23.103828338161	1.002
17	57394	23.153828338161	1.002
17	57765	23.203828338161	1.002
17	57781	23.253828338161	1.002
17	58152	23.303828338161	1.002
17	58168	23.353828338161	1.002
17	58539	23.403828338161	1.002
17	58555	23.453828338161	1.002
17	58910	23.503828338161	1.002
17	58926	23.553828338161	1.002
17	59297	23.603828338161	1.002
17	59313	23.653828338161	1.002
17	59684	23.703828338161	1.002
17	59700	23.753828338161	1.002
17	60071	23.803828338161	1.002
17	60087	23.853828338161	1.002
17	60458	23.903828338161	1.002
17	60474	23.953828338161	1.002
17	60834	24.003828338161	1.002
17	60850	24.053828338161	1.002
17	61205	24.103828338161	1.002
17	61221	24.153828338161	1.002
17	61581	24.203828338161	1.002
17	61597	24.253828338161	1.002
17	61968	24.303828338161	1.002
17	61984	24.353828338161	1.002
17	62339	24.403828338161	1.002
17	62355	24.453828338161	1.002
17	62726	24.503828338161	1.002
17	62742	24.553828338161	1.002
17	63113	24.603828338161	1.002
17	63129	24.653828338161	1.002
17	63489	24.703828338161	1.002
17	63505	24.753828338161	1.002
17	63860	24.803828338161	1.002
17	63876	24.853828338161	1.002
17	64247	24.903828338161	1.002
17	64263	24.953828338161	1.002
17	64634	25.003828338161	1.002
17	64650	25.053828338161	1.002
17	65010	25.103828338161	1.002
17	65026	25.153828338161	1.002
17	65397	25.203828338161	1.002
17	65413	25.253828338161	1.002
17	65768	25.303828338161	1.002
17	65784	25.353828338161	1.002
17	66139	25.403828338161	1.002
17	66155	25.453828338161	1.002
17	66526	25.503828338161	1.002
17	66542	25.553828338161	1.002
17	66902	25.603828338161	1.002
17	66918	25.653828338161	1.002
17	67289	25.703828338161	1.002
17	67305	25.753828338161	1.002
17	67676	25.803828338161	1.002
17	67692	25.853828338161	1.002
17	68063	25.903828338161	1.002
17	68079	25.953828338161	1.002
17	68439	26.003828338161	1.002
17	68455	26.053828338161	1.002
17	68815	26.103828338161	1.002
17	68831	26.153828338161	1.002
17	69218	26.203828338161	1.002
17	69234	26.253828338161	1.002
17	69605	26.303828338161	1.002
17	69621	26.353828338161	1.002
17	69992	26.403828338161	1.002
17	70008	26.453828338161	1.002
17	70395	26.503828338161	1.002
17	70411	26.553828338161	1.002
17	70771	26.603828338161	1.002
17	70787	26.653828338161	1.002
17	71158	26.703828338161	1.002
17	71174	26.753828338161	1.002
17	71534	26.803828338161	1.002
17	71550	26.853828338161	1.002
17	71905	26.903828338161	1.002
17	71921	26.953828338161	1.002
17	72292	27.003828338161	1.002
17	72308	27.053828338161	1.002
17	72679	27.103828338161	1.002
17	72695	27.153828338161	1.002
17	73050	27.203828338161	1.002
17	73066	27.253828338161	1.002
17	73421	27.303828338161	1.002
17	73437	27.353828338161	1.002
17	73808	27.403828338161	1.002
17	73824	27.453828338161	1.002
17	74179	27.503828338161	1.002
17	74195	27.553828338161	1.002
17	74555	27.603828338161	1.002
17	74571	27.653828338161	1.002
17	74942	27.703828338161	1.002
17	74958	27.753828338161	1.002
17	75329	27.803828338161	1.002
17	75345	27.853828338161	1.002
17	75716	27.903828338161	1.002
17	75732	27.953828338161	1.002
17	76092	28.003828338161	1.002
17	76108	28.053828338161	1.002
17	76463	28.103828338161	1.002
17	76479	28.153828338161	1.002
17	76839	28.203828338161	1.002
17	76855	28.253828338161	1.002
17	77226	28.303828338161	1.002
17	77242	28.353828338161	1.002
17	77602	28.403828338161	1.002
17	77618	28.453828338161	1.002
17	77978	28.503828338161	1.002
17	77994	28.553828338161	1.002
17	78354	28.603828338161	1.002
17	78370	28.653828338161	1.002
17	78741	28.703828338161	1.002
17	78757	28.753828338161	1.002
17	79117	28.803828338161	1.002
17	79133	28.853828338161	1.002
17	79488	28.903828338161	1.002
17	79504	28.953828338161	1.002
17	79875	29.003828338161	1.002
17	79891	29.053828338161	1.002
17	80262	29.103828338161	1.002
17	80278	29.153828338161	1.002
17	80627	29.203828338161	1.002
17	80643	29.253828338161	1.002
17	81030	29.303828338161	1.002
17	81046	29.353828338161	1.002
17	81417	29.403828338161	1.002
17	81433	29.453828338161	1.002
17	81793	29.503828338161	1.002
17	81809	29.553828338161	1.002
17	82164	29.603828338161	1.002
17	82180	29.653828338161	1.002
17	82535	29.703828338161	1.002
17	82551	29.753828338161	1.002
17	82911	29.803828338161	1.002
17	82927	29.853828338161	1.002
17	83298	29.903828338161	1.002
17	83314	29.953828338161	1.002
17	83701	30.003828338161	1.002
17	83717	30.053828338161	1.002
17	84077	30.103828338161	1.002
17	84093	30.153828338161	1.002
17	84464	30.203828338161	1.002
17	84480	30.253828338161	1.002
17	84851	30.303828338161	1.002
17	84867	30.353828338161	1.002
17	85238	30.403828338161	1.002
17	85254	30.453828338161	1.002
17	85603	30.503828338161	1.002
17	85619	30.553828338161	1.002
17	85990	30.603828338161	1.002
17	86006	30.653828338161	1.002
17	86377	30.703828338161	1.002
17	86393	30.753828338161	1.002
17	86753	30.803828338161	1.002
17	86769	30.853828338161	1.002
17	87129	30.903828338161	1.002
17	87145	30.953828338161	1.002
17	87516	31.003828338161	1.002
17	87532	31.053828338161	1.002
17	87903	31.103828338161	1.002
17	87919	31.153828338161	1.002
17	88290	31.203828338161	1.002
17	88306	31.253828338161	1.002
17	88661	31.303828338161	1.002
17	88677	31.353828338161	1.002
17	89048	31.403828338161	1.002
17	89064	31.453828338161	1.002
17	89424	31.503828338161	1.002
17	89440	31.553828338161	1.002
17	89827	31.603828338161	1.002
17	89843	31.653828338161	1.002
17	90203	31.703828338161	1.002
17	90219	31.753828338161	1.002
17	90579	31.803828338161	1.002
17	90595	31.853828338161	1.002
17	90944	31.903828338161	1.002
17	90960	31.953828338161	1.002
17	91347	32.003828338161	1.002
17	91363	32.053828338161	1.002
17	91723	32.103828338161	1.002
17	91739	32.153828338161	1.002
17	92126	32.203828338161	1.002
17	92142	32.253828338161	1.002
17	92513	32.303828338161	1.002
17	92529	32.353828338161	1.002
17	92900	32.403828338161	1.002
17	92916	32.453828338161	1.002
17	93271	32.503828338161	1.002
17	93287	32.553828338161	1.002
17	93642	32.603828338161	1.002
17	93658	32.653828338161	1.002
17	94013	32.703828338161	1.002
17	94029	32.753828338161	1.002
17	94384	32.803828338161	1.002
17	94400	32.853828338161	1.002
17	94755	32.903828338161	1.002
17	94771	32.953828338161	1.002
17	95142	33.003828338161	1.002
17	95158	33.053828338161	1.002
17	95529	33.103828338161	1.002
17	95545	33.153828338161	1.002
17	95905	33.203828338161	1.002
17	95921	33.253828338161	1.002
17	96292	33.303828338161	1.002
17	96308	33.353828338161	1.002
17	96668	33.403828338161	1.002
17	96684	33.453828338161	1.002
17	97055	33.503828338161	1.002
17	97071	33.553828338161	1.002
17	97458	33.603828338161	1.002
17	97474	33.653828338161	1.002
17	97861	33.703828338161	1.002
17	97877	33.753828338161	1.002
17	98248	33.803828338161	1.002
17	98264	33.853828338161	1.002
17	98651	33.903828338161	1.002
17	98667	33.953828338161	1.002
17	99038	34.003828338161	1.002
17	99054	34.053828338161	1.002
17	99409	34.103828338161	1.002
17	99425	34.153828338161	1.002
17	99780	34.203828338161	1.002
17	99796	34.253828338161	1.002
17	100167	34.303828338161	1.002
17	100183	34.353828338161	1.002
17	100554	34.403828338161	1.002
17	100570	34.453828338161	1.002
17	100941	34.503828338161	1.002
17	100957	34.553828338161	1.002
17	101328	34.603828338161	1.002
17	101344	34.653828338161	1.002
17	101715	34.703828338161	1.002
17	101731	34.753828338161	1.002
17	102102	34.803828338161	1.002
17	102118	34.853828338161	1.002
17	102505	34.903828338161	1.002
17	102521	34.953828338161	1.002
17	102892	35.003828338161	1.002
17	102908	35.053828338161	1.002
17	103279	35.103828338161	1.002
17	103295	35.153828338161	1.002
17	103650	35.203828338161	1.002
17	103666	35.253828338161	1.002
17	104053	35.303828338161	1.002
17	104069	35.353828338161	1.002
17	104440	35.403828338161	1.002
17	104456	35.453828338161	1.002
17	104827	35.503828338161	1.002
17	104843	35.553828338161	1.002
17	105214	35.603828338161	1.002
17	105230	35.653828338161	1.002
17	105617	35.703828338161	1.002
17	105633	35.753828338161	1.002
17	106004	35.803828338161	1.002
17	106020	35.853828338161	1.002
17	106407	35.903828338161	1.002
17	106423	35.953828338161	1.002
17	106778	36.003828338161	1.002
17	106794	36.053828338161	1.002
17	107154	36.103828338161	1.002
17	107170	36.153828338161	1.002
17	107541	36.203828338161	1.002
17	107557	36.253828338161	1.002
17	107917	36.303828338161	1.002
17	107933	36.353828338161	1.002
17	108304	36.403828338161	1.002
17	108320	36.453828338161	1.002
17	108707	36.503828338161	1.002
17	108723	36.553828338161	1.002
17	109094	36.603828338161	1.002
17	109110	36.653828338161	1.002
17	109481	36.703828338161	1.002
17	109497	36.753828338161	1.002
17	109852	36.803828338161	1.002
17	109868	36.853828338161	1.002
17	110239	36.903828338161	1.002
17	110255	36.953828338161	1.002
17	110626	37.003828338161	1.002
17	110642	37.053828338161	1.002
17	111029	37.103828338161	1.002
17	111045	37.153828338161	1.002
17	111405	37.203828338161	1.002
17	111421	37.253828338161	1.002
17	111781	37.303828338161	1.002
17	111797	37.353828338161	1.002
17	112146	37.403828338161	1.002
17	112162	37.453828338161	1.002
17	112533	37.503828338161	1.002
17	112549	37.553828338161	1.002
17	112920	37.603828338161	1.002
17	112936	37.653828338161	1.002
17	113307	37.703828338161	1.002
17	113323	37.753828338161	1.002
17	113683	37.803828338161	1.002
17	113699	37.853828338161	1.002
17	114070	37.903828338161	1.002
17	114086	37.953828338161	1.002
17	114441	38.003828338161	1.002
17	114457	38.053828338161	1.002
17	114828	38.103828338161	1.002
17	114844	38.153828338161	1.002
17	115204	38.203828338161	1.002
17	115220	38.253828338161	1.002
17	115591	38.303828338161	1.002
17	115607	38.353828338161	1.002
17	115962	38.403828338161	1.002
17	115978	38.453828338161	1.002
17	116338	38.503828338161	1.002
17	116354	38.553828338161	1.002
17	116741	38.603828338161	1.002
17	116757	38.653828338161	1.002
17	117106	38.703828338161	1.002
17	117122	38.753828338161	1.002
17	117493	38.803828338161	1.002
17	117509	38.853828338161	1.002
17	117869	38.903828338161	1.002
17	117885	38.953828338161	1.002
17	118245	39.003828338161	1.002
17	118261	39.053828338161	1.002
17	118648	39.103828338161	1.002
17	118664	39.153828338161	1.002
17	119035	39.203828338161	1.002
17	119051	39.253828338161	1.002
17	119422	39.303828338161	1.002
17	119438	39.353828338161	1.002
17	119809	39.403828338161	1.002
17	119825	39.453828338161	1.002
17	120180	39.503828338161	1.002
17	120196	39.553828338161	1.002
17	120583	39.603828338161	1.002
17	120599	39.653828338161	1.002
17	120959	39.703828338161	1.002
17	120975	39.753828338161	1.002
17	121346	39.803828338161	1.002
17	121362	39.853828338161	1.002
17	121717	39.903828338161	1.002
17	121733	39.953828338161	1.002
17	122104	40.003828338161	1.002
17	122120	40.053828338161	1.002
17	122491	40.103828338161	1.002
17	122507	40.153828338161	1.002
17	122878	40.203828338161	1.002
17	122894	40.253828338161	1.002
17	123265	40.303828338161	1.002
17	123281	40.353828338161	1.002
17	123641	40.403828338161	1.002
17	123657	40.453828338161	1.002
17	124006	40.503828338161	1.002
17	124022	40.553828338161	1.002
17	124393	40.603828338161	1.002
17	124409	40.653828338161	1.002
17	124758	40.703828338161	1.002
17	124774	40.753828338161	1.002
17	125145	40.803828338161	1.002
17	125161	40.853828338161	1.002
17	125521	40.903828338161	1.002
17	125537	40.953828338161	1.002
17	125924	41.003828338161	1.002
17	125940	41.053828338161	1.002
17	126289	41.103828338161	1.002
17	126305	41.153828338161	1.002
17	126665	41.203828338161	1.002
17	126681	41.253828338161	1.002
17	127052	41.303828338161	1.002
17	127068	41.353828338161	1.002
17	127439	41.403828338161	1.002
17	127455	41.453828338161	1.002
17	127826	41.503828338161	1.002
17	127842	41.553828338161	1.002
17	128197	41.603828338161	1.002
17	128213	41.653828338161	1.002
17	128584	41.703828338161	1.002
17	128600	41.753828338161	1.002
17	128960	41.803828338161	1.002
17	128976	41.853828338161	1.002
17	129347	41.903828338161	1.002
17	129363	41.953828338161	1.002
17	129723	42.003828338161	1.002
17	129739	42.053828338161	1.002
17	130110	42.103828338161	1.002
17	130126	42.153828338161	1.002
17	130481	42.203828338161	1.002
17	130497	42.253828338161	1.002
17	130868	42.303828338161	1.002
17	130884	42.353828338161	1.002
17	131255	42.403828338161	1.002
17	131271	42.453828338161	1.002
17	131626	42.503828338161	1.002
17	131642	42.553828338161	1.002
17	132029	42.603828338161	1.002
17	132045	42.653828338161	1.002
17	132416	42.703828338161	1.002
17	132432	42.753828338161	1.002
17	132803	42.803828338161	1.002
17	132819	42.853828338161	1.002
17	133174	42.903828338161	1.002
17	133190	42.953828338161	1.002
17	133561	43.003828338161	1.002
17	133577	43.053828338161	1.002
17	133948	43.103828338161	1.002
17	133964	43.153828338161	1.002
17	134319	43.203828338161	1.002
17	134335	43.253828338161	1.002
17	134690	43.303828338161	1.002
17	134706	43.353828338161	1.002
17	135061	43.403828338161	1.002
17	135077	43.453828338161	1.002
17	135437	43.503828338161	1.002
17	135453	43.553828338161	1.002
17	135824	43.603828338161	1.002
17	135840	43.653828338161	1.002
17	136195	43.703828338161	1.002
17	136211	43.753828338161	1.002
17	136582	43.803828338161	1.002
17	136598	43.853828338161	1.002
17	136953	43.903828338161	1.002
17	136969	43.953828338161	1.002
17	137340	44.003828338161	1.002
17	137356	44.053828338161	1.002
17	137716	44.103828338161	1.002
17	137732	44.153828338161	1.002
17	138081	44.203828338161	1.002
17	138097	44.253828338161	1.002
17	138468	44.303828338161	1.002
17	138484	44.353828338161	1.002
17	138871	44.403828338161	1.002
17	138887	44.453828338161	1.002
17	139274	44.503828338161	1.002
17	139290	44.553828338161	1.002
17	139661	44.603828338161	1.002
17	139677	44.653828338161	1.002
17	140048	44.703828338161	1.002
17	140064	44.753828338161	1.002
17	140435	44.803828338161	1.002
17	140451	44.853828338161	1.002
17	140806	44.903828338161	1.002
17	140822	44.953828338161	1.002
17	141182	45.003828338161	1.002
17	141198	45.053828338161	1.002
17	141558	45.103828338161	1.002
17	141574	45.153828338161	1.002
17	141945	45.203828338161	1.002
17	141961	45.253828338161	1.002
17	142321	45.303828338161	1.002
17	142337	45.353828338161	1.002
17	142708	45.403828338161	1.002
17	142724	45.453828338161	1.002
17	143084	45.503828338161	1.002
17	143100	45.553828338161	1.002
17	143471	45.603828338161	1.002
17	143487	45.653828338161	1.002
17	143858	45.703828338161	1.002
17	143874	45.753828338161	1.002
17	144229	45.803828338161	1.002
17	144245	45.853828338161	1.002
17	144616	45.903828338161	1.002
17	144632	45.953828338161	1.002
17	145003	46.003828338161	1.002
17	145019	46.053828338161	1.002
17	145390	46.103828338161	1.002
17	145406	46.153828338161	1.002
17	145777	46.203828338161	1.002
17	145793	46.253828338161	1.002
17	146164	46.303828338161	1.002
17	146180	46.353828338161	1.002
17	146540	46.403828338161	1.002
17	146556	46.453828338161	1.002
17	146943	46.503828338161	1.002
17	146959	46.553828338161	1.002
17	147330	46.603828338161	1.002
17	147346	46.653828338161	1.002
17	147695	46.703828338161	1.002
17	147711	46.753828338161	1.002
17	148098	46.803828338161	1.002
17	148114	46.853828338161	1.002
17	148501	46.903828338161	1.002
17	148517	46.953828338161	1.002
17	148877	47.003828338161	1.002
17	148893	47.053828338161	1.002
17	149253	47.103828338161	1.002
17	149269	47.153828338161	1.002
17	149629	47.203828338161	1.002
17	149645	47.253828338161	1.002
17	150005	47.303828338161	1.002
17	150021	47.353828338161	1.002
17	150392	47.403828338161	1.002
17	150408	47.453828338161	1.002
17	150779	47.503828338161	1.002
17	150795	47.553828338161	1.002
17	151166	47.603828338161	1.002
17	151182	47.653828338161	1.002
17	151553	47.703828338161	1.002
17	151569	47.753828338161	1.002
17	151940	47.803828338161	1.002
17	151956	47.853828338161	1.002
17	152327	47.903828338161	1.002
17	152343	47.953828338161	1.002
17	152714	48.003828338161	1.002
17	152730	48.053828338161	1.002
17	153090	48.103828338161	1.002
17	153106	48.153828338161	1.002
17	153466	48.203828338161	1.002
17	153482	48.253828338161	1.002
17	153853	48.303828338161	1.002
17	153869	48.353828338161	1.002
17	154229	48.403828338161	1.002
17	154245	48.453828338161	1.002
17	154600	48.503828338161	1.002
17	154616	48.553828338161	1.002
17	154976	48.603828338161	1.002
17	154992	48.653828338161	1.002
17	155363	48.703828338161	1.002
17	155379	48.753828338161	1.002
17	155750	48.803828338161	1.002
17	155766	48.853828338161	1.002
17	156137	48.903828338161	1.002
17	156153	48.953828338161	1.002
17	156524	49.003828338161	1.002
17	156540	49.053828338161	1.002
17	156911	49.103828338161	1.002
17	156927	49.153828338161	1.002
17	157298	49.203828338161	1.002
17	157314	49.253828338161	1.002
17	157674	49.303828338161	1.002
17	157690	49.353828338161	1.002
17	158061	49.403828338161	1.002
17	158077	49.453828338161	1.002
17	158437	49.503828338161	1.002
17	158453	49.553828338161	1.002
17	158824	49.603828338161	1.002
17	158840	49.653828338161	1.002
17	159211	49.703828338161	1.002
17	159227	49.753828338161	1.002
17	159598	49.803828338161	1.002
17	159614	49.853828338161	1.002
17	159974	49.903828338161	1.002
17	159990	49.953828338161	1.002
17	160345	50.003828338161	1.002
17	160361	50.053828338161	1.002
17	160732	50.103828338161	1.002
17	160748	50.153828338161	1.002
17	161135	50.203828338161	1.002
17	161151	50.253828338161	1.002
17	161511	50.303828338161	1.002
17	161527	50.353828338161	1.002
17	161898	50.403828338161	1.002
17	161914	50.453828338161	1.002
17	162274	50.503828338161	1.002
17	162290	50.553828338161	1.002
17	162645	50.603828338161	1.002
17	162661	50.653828338161	1.002
17	163032	50.703828338161	1.002
17	163048	50.753828338161	1.002
17	163419	50.803828338161	1.002
17	163435	50.853828338161	1.002
17	163806	50.903828338161	1.002
17	163822	50.953828338161	1.002
17	164182	51.003828338161	1.002
17	164198	51.053828338161	1.002
17	164553	51.103828338161	1.002
17	164569	51.153828338161	1.002
17	164940	51.203828338161	1.002
17	164956	51.253828338161	1.002
17	165327	51.303828338161	1.002
17	165343	51.353828338161	1.002
17	165714	51.403828338161	1.002
17	165730	51.453828338161	1.002
17	166101	51.503828338161	1.002
17	166117	51.553828338161	1.002
17	166477	51.603828338161	1.002
17	166493	51.653828338161	1.002
17	166853	51.703828338161	1.002
17	166869	51.753828338161	1.002
17	167224	51.803828338161	1.002
17	167240	51.853828338161	1.002
17	167611	51.903828338161	1.002
17	167627	51.953828338161	1.002
17	167998	52.003828338161	1.002
17	168014	52.053828338161	1.002
17	168385	52.103828338161	1.002
17	168401	52.153828338161	1.002
17	168761	52.203828338161	1.002
17	168777	52.253828338161	1.002
17	169137	52.303828338161	1.002
17	169153	52.353828338161	1.002
17	169524	52.403828338161	1.002
17	169540	52.453828338161	1.002
17	169911	52.503828338161	1.002
17	169927	52.553828338161	1.002
17	170282	52.603828338161	1.002
17	170298	52.653828338161	1.002
17	170647	52.703828338161	1.002
17	170663	52.753828338161	1.002
17	171050	52.803828338161	1.002
17	171066	52.853828338161	1.002
17	171421	52.903828338161	1.002
17	171437	52.953828338161	1.002
17	171808	53.003828338161	1.002
17	171824	53.053828338161	1.002
17	172195	53.103828338161	1.002
17	172211	53.153828338161	1.002
17	172566	53.203828338161	1.002
17	172582	53.253828338161	1.002
17	172953	53.303828338161	1.002
17	172969	53.353828338161	1.002
17	173340	53.403828338161	1.002
17	173356	53.453828338161	1.002
17	173727	53.503828338161	1.002
17	173743	53.553828338161	1.002
17	174114	53.603828338161	1.002
17	174130	53.653828338161	1.002
17	174501	53.703828338161	1.002
17	174517	53.753828338161	1.002
17	174872	53.803828338161	1.002
17	174888	53.853828338161	1.002
17	175259	53.903828338161	1.002
17	175275	53.953828338161	1.002
17	175646	54.003828338161	1.002
17	175662	54.053828338161	1.002
17	176033	54.103828338161	1.002
17	176049	54.153828338161	1.002
17	176420	54.203828338161	1.002
17	176436	54.253828338161	1.002
17	176807	54.303828338161	1.002
17	176823	54.353828338161	1.002
17	177183	54.403828338161	1.002
17	177199	54.453828338161	1.002
17	177554	54.503828338161	1.002
17	177570	54.553828338161	1.002
17	177957	54.603828338161	1.002
17	177973	54.653828338161	1.002
17	178333	54.703828338161	1.002
17	178349	54.753828338161	1.002
17	178720	54.803828338161	1.002
17	178736	54.853828338161	1.002
17	179107	54.903828338161	1.002
17	179123	54.953828338161	1.002
17	179483	55.003828338161	1.002
17	179499	55.053828338161	1.002
17	179870	55.103828338161	1.002
17	179886	55.153828338161	1.002
17	180246	55.203828338161	1.002
17	180262	55.253828338161	1.002
17	180622	55.303828338161	1.002
17	180638	55.353828338161	1.002
17	181009	55.403828338161	1.002
17	181025	55.453828338161	1.002
17	181396	55.503828338161	1.002
17	181412	55.553828338161	1.002
17	181799	55.603828338161	1.002
17	181815	55.653828338161	1.002
17	182170	55.703828338161	1.002
17	182186	55.753828338161	1.002
17	182573	55.803828338161	1.002
17	182589	55.853828338161	1.002
17	182944	55.903828338161	1.002
17	182960	55.953828338161	1.002
17	183320	56.003828338161	1.002
17	183336	56.053828338161	1.002
17	183707	56.103828338161	1.002
17	183723	56.153828338161	1.002
17	184078	56.203828338161	1.002
17	184094	56.253828338161	1.002
17	184465	56.303828338161	1.002
17	184481	56.353828338161	1.002
17	184841	56.403828338161	1.002
17	184857	56.453828338161	1.002
17	185212	56.503828338161	1.002
17	185228	56.553828338161	1.002
17	185599	56.603828338161	1.002
17	185615	56.653828338161	1.002
17	185986	56.703828338161	1.002
17	186002	56.753828338161	1.002
17	186373	56.803828338161	1.002
17	186389	56.853828338161	1.002
17	186760	56.903828338161	1.002
17	186776	56.953828338161	1.002
17	187125	57.003828338161	1.002
17	187141	57.053828338161	1.002
17	187512	57.103828338161	1.002
17	187528	57.153828338161	1.002
17	187899	57.203828338161	1.002
17	187915	57.253828338161	1.002
17	188275	57.303828338161	1.002
17	188291	57.353828338161	1.002
17	188662	57.403828338161	1.002
17	188678	57.453828338161	1.002
17	189049	57.503828338161	1.002
17	189065	57.553828338161	1.002
17	189436	57.603828338161	1.002
17	189452	57.653828338161	1.002
17	189823	57.703828338161	1.002
17	189839	57.753828338161	1.002
17	190210	57.803828338161	1.002
17	190226	57.853828338161	1.002
17	190586	57.903828338161	1.002
17	190602	57.953828338161	1.002
17	190957	58.003828338161	1.002
17	190973	58.053828338161	1.002
17	191344	58.103828338161	1.002
17	191360	58.153828338161	1.002
17	191731	58.203828338161	1.002
17	191747	58.253828338161	1.002
17	192118	58.303828338161	1.002
17	192134	58.353828338161	1.002
17	192505	58.403828338161	1.002
17	192521	58.453828338161	1.002
17	192876	58.503828338161	1.002
17	192892	58.553828338161	1.002
17	193247	58.603828338161	1.002
17	193263	58.653828338161	1.002
17	193634	58.703828338161	1.002
17	193650	58.753828338161	1.002
17	194005	58.803828338161	1.002
17	194021	58.853828338161	1.002
17	194392	58.903828338161	1.002
17	194408	58.953828338161	1.002
17	194779	59.003828338161	1.002
17	194795	59.053828338161	1.002
17	195150	59.103828338161	1.002
17	195166	59.153828338161	1.002
17	195526	59.203828338161	1.002
17	195542	59.253828338161	1.002
17	195913	59.303828338161	1.002
17	195929	59.353828338161	1.002
17	196300	59.403828338161	1.002
17	196316	59.453828338161	1.002
17	196687	59.503828338161	1.002
17	196703	59.553828338161	1.002
17	197090	59.603828338161	1.002
17	197106	59.653828338161	1.002
17	197477	59.703828338161	1.002
17	197493	59.753828338161	1.002
17	197864	59.803828338161	1.002
17	197880	59.853828338161	1.002
17	198251	59.903828338161	1.002
17	198267	59.953828338161	1.002
17	198627	60.003828338161	1.002
17	198643	60.053828338161	1.002
17	198998	60.103828338161	1.002
17	199014	60.153828338161	1.002
17	199385	60.203828338161	1.002
17	199401	60.253828338161	1.002
17	199772	60.303828338161	1.002
17	199788	60.353828338161	1.002
17	200159	60.403828338161	1.002
17	200175	60.453828338161	1.002
17	200535	60.503828338161	1.002
17	200551	60.553828338161	1.002
17	200906	60.603828338161	1.002
17	200922	60.653828338161	1.002
17	201277	60.703828338161	1.002
17	201293	60.753828338161	1.002
17	201648	60.803828338161	1.002
17	201664	60.853828338161	1.002
17	202019	60.903828338161	1.002
17	202035	60.953828338161	1.002
17	202422	61.003828338161	1.002
17	202438	61.053828338161	1.002
17	202793	61.103828338161	1.002
17	202809	61.153828338161	1.002
17	203180	61.203828338161	1.002
17	203196	61.253828338161	1.002
17	203556	61.303828338161	1.002
17	203572	61.353828338161	1.002
17	203959	61.403828338161	1.002
17	203975	61.453828338161	1.002
17	204346	61.503828338161	1.002
17	204362	61.553828338161	1.002
17	204733	61.603828338161	1.002
17	204749	61.653828338161	1.002
16	12	0.253828338161	1
16	30	0.303828338161	2
16	34	0.353828338161	3
16	65	0.403828338161	4
16	69	0.453828338161	5
16	100	0.503828338161	6
16	104	0.553828338161	7
16	135	0.603828338161	8
16	139	0.653828338161	9
16	170	0.703828338161	10
16	174	0.753828338161	11
16	205	0.803828338161	12
16	209	0.853828338161	13
16	240	0.903828338161	14
16	244	0.953828338161	15
16	275	1.003828338161	16
16	279	1.053828338161	17
16	310	1.103828338161	18
16	314	1.153828338161	19
16	345	1.203828338161	20
16	349	1.253828338161	21
16	380	1.303828338161	22
16	384	1.353828338161	23
16	415	1.403828338161	24
16	419	1.453828338161	25
16	450	1.503828338161	26
16	454	1.553828338161	27
16	485	1.603828338161	28
16	489	1.653828338161	29
16	520	1.703828338161	30
16	524	1.753828338161	31
16	555	1.803828338161	32
16	559	1.853828338161	33
16	590	1.903828338161	34
16	594	1.953828338161	35
16	625	2.003828338161	36
16	629	2.053828338161	37
16	660	2.103828338161	38
16	664	2.153828338161	39
16	695	2.203828338161	40
16	699	2.253828338161	41
16	730	2.303828338161	42
16	734	2.353828338161	43
16	765	2.403828338161	44
16	769	2.453828338161	45
16	800	2.503828338161	46
16	804	2.553828338161	47
16	835	2.603828338161	48
16	839	2.653828338161	49
16	870	2.703828338161	50
16	874	2.753828338161	51
16	905	2.803828338161	52
16	909	2.853828338161	53
16	940	2.903828338161	54
16	944	2.953828338161	55
16	975	3.003828338161	56
16	979	3.053828338161	57
16	1010	3.103828338161	58
16	1015	3.153828338161	59
16	1059	3.203828338161	60
16	1064	3.253828338161	61
16	1108	3.303828338161	62
16	1113	3.353828338161	63
16	1157	3.403828338161	64
16	1162	3.453828338161	65
16	1206	3.503828338161	66
16	1211	3.553828338161	67
16	1255	3.603828338161	68
16	1260	3.653828338161	69
16	1304	3.703828338161	70
16	1309	3.753828338161	71
16	1353	3.803828338161	72
16	1358	3.853828338161	73
16	1402	3.903828338161	74
16	1407	3.953828338161	75
16	1472	4.003828338161	77
16	1479	4.053828338161	79
16	1563	4.103828338161	81
16	1570	4.153828338161	83
16	1654	4.203828338161	85
16	1661	4.253828338161	87
16	1745	4.303828338161	89
16	1752	4.353828338161	91
16	1836	4.403828338161	93
16	1843	4.453828338161	95
16	1927	4.503828338161	97
16	1934	4.553828338161	99
16	2018	4.603828338161	101
16	2025	4.653828338161	103
16	2109	4.703828338161	105
16	2116	4.753828338161	107
16	2200	4.803828338161	109
16	2207	4.853828338161	111
16	2291	4.903828338161	113
16	2298	4.953828338161	115
16	2382	5.003828338161	117
16	2389	5.053828338161	119
16	2473	5.103828338161	121
16	2480	5.153828338161	123
16	2564	5.203828338161	125
16	2571	5.253828338161	127
16	2655	5.303828338161	129
16	2662	5.353828338161	131
16	2746	5.403828338161	133
16	2753	5.453828338161	135
16	2837	5.503828338161	137
16	2844	5.553828338161	139
16	2928	5.603828338161	141
16	2935	5.653828338161	143
16	3019	5.703828338161	145
16	3026	5.753828338161	147
16	3110	5.803828338161	149
16	3117	5.853828338161	151
16	3201	5.903828338161	153
16	3208	5.953828338161	155
16	3292	6.003828338161	157
16	3299	6.053828338161	159
16	3383	6.103828338161	161
16	3391	6.153828338161	163
16	3527	6.203828338161	166
16	3537	6.253828338161	169
16	3688	6.303828338161	172
16	3698	6.353828338161	175
16	3859	6.403828338161	178
16	3869	6.453828338161	181
16	4030	6.503828338161	184
16	4040	6.553828338161	187
16	4191	6.603828338161	190
16	4201	6.653828338161	193
16	4362	6.703828338161	196
16	4372	6.753828338161	199
16	4533	6.803828338161	202
16	4543	6.853828338161	205
16	4704	6.903828338161	208
16	4714	6.953828338161	211
16	4865	7.003828338161	214
16	4875	7.053828338161	217
16	5036	7.103828338161	220
16	5046	7.153828338161	223
16	5207	7.203828338161	226
16	5217	7.253828338161	229
16	5378	7.303828338161	232
16	5388	7.353828338161	235
16	5539	7.403828338161	238
16	5549	7.453828338161	241
16	5700	7.503828338161	244
16	5710	7.553828338161	247
16	5861	7.603828338161	250
16	5871	7.653828338161	253
16	6022	7.703828338161	256
16	6032	7.753828338161	259
16	6183	7.803828338161	262
16	6193	7.853828338161	265
16	6344	7.903828338161	268
16	6354	7.953828338161	271
16	6515	8.003828338161	274
16	6525	8.053828338161	277
16	6686	8.103828338161	280
16	6696	8.153828338161	283
16	6847	8.203828338161	286
16	6857	8.253828338161	289
16	7018	8.303828338161	292
16	7028	8.353828338161	295
16	7189	8.403828338161	298
16	7199	8.453828338161	301
16	7360	8.503828338161	304
16	7370	8.553828338161	307
16	7531	8.603828338161	310
16	7541	8.653828338161	313
16	7702	8.703828338161	316
16	7712	8.753828338161	319
16	7863	8.803828338161	322
16	7873	8.853828338161	325
16	8034	8.903828338161	328
16	8044	8.953828338161	331
16	8205	9.003828338161	334
16	8215	9.053828338161	337
16	8376	9.103828338161	340
16	8387	9.153828338161	343
16	8573	9.203828338161	346
16	8584	9.253828338161	349
16	8782	9.303828338161	352
16	8793	9.353828338161	355
16	8979	9.403828338161	358
16	8990	9.453828338161	361
16	9175	9.503828338161	364
16	9186	9.553828338161	367
16	9384	9.603828338161	370
16	9395	9.653828338161	373
16	9593	9.703828338161	376
16	9604	9.753828338161	379
16	9789	9.803828338161	382
16	9800	9.853828338161	385
16	10031	9.903828338161	389
16	10044	9.953828338161	393
16	10293	10.003828338161	397
16	10306	10.053828338161	401
16	10546	10.103828338161	405
16	10559	10.153828338161	409
16	10821	10.203828338161	413
16	10834	10.253828338161	417
16	11083	10.303828338161	421
16	11096	10.353828338161	425
16	11345	10.403828338161	429
16	11358	10.453828338161	433
16	11620	10.503828338161	437
16	11633	10.553828338161	441
16	11869	10.603828338161	445
16	11882	10.653828338161	449
16	12131	10.703828338161	453
16	12144	10.753828338161	457
16	12393	10.803828338161	461
16	12406	10.853828338161	465
16	12655	10.903828338161	469
16	12668	10.953828338161	473
16	12930	11.003828338161	477
16	12943	11.053828338161	481
16	13205	11.103828338161	485
16	13218	11.153828338161	489
16	13480	11.203828338161	493
16	13493	11.253828338161	497
16	13755	11.303828338161	501
16	13768	11.353828338161	505
16	14017	11.403828338161	509
16	14030	11.453828338161	513
16	14292	11.503828338161	517
16	14305	11.553828338161	521
16	14554	11.603828338161	525
16	14567	11.653828338161	529
16	14816	11.703828338161	533
16	14829	11.753828338161	537
16	15069	11.803828338161	541
16	15082	11.853828338161	545
16	15331	11.903828338161	549
16	15344	11.953828338161	553
16	15606	12.003828338161	557
16	15619	12.053828338161	561
16	15881	12.103828338161	565
16	15895	12.153828338161	569
16	16190	12.203828338161	573
16	16204	12.253828338161	577
16	16515	12.303828338161	581
16	16529	12.353828338161	585
16	16824	12.403828338161	589
16	16838	12.453828338161	593
16	17134	12.503828338161	597
16	17148	12.553828338161	601
16	17443	12.603828338161	605
16	17457	12.653828338161	609
16	17752	12.703828338161	613
16	17766	12.753828338161	617
16	18077	12.803828338161	621
16	18091	12.853828338161	625
16	18402	12.903828338161	629
16	18416	12.953828338161	633
16	18712	13.003828338161	637
16	18726	13.053828338161	641
16	19060	13.103828338161	646
16	19076	13.153828338161	651
16	19436	13.203828338161	656
16	19452	13.253828338161	661
16	19812	13.303828338161	666
16	19828	13.353828338161	671
16	20199	13.403828338161	676
16	20215	13.453828338161	681
16	20602	13.503828338161	686
16	20618	13.553828338161	691
16	20973	13.603828338161	696
16	20989	13.653828338161	701
16	21376	13.703828338161	706
16	21392	13.753828338161	711
16	21764	13.803828338161	716
16	21780	13.853828338161	721
16	22140	13.903828338161	726
16	22156	13.953828338161	731
16	22511	14.003828338161	736
16	22527	14.053828338161	741
16	22898	14.103828338161	746
16	22914	14.153828338161	751
16	23274	14.203828338161	756
16	23290	14.253828338161	761
16	23646	14.303828338161	766
16	23662	14.353828338161	771
16	24033	14.403828338161	776
16	24049	14.453828338161	781
16	24409	14.503828338161	786
16	24425	14.553828338161	791
16	24780	14.603828338161	796
16	24796	14.653828338161	801
16	25167	14.703828338161	806
16	25183	14.753828338161	811
16	25570	14.803828338161	816
16	25586	14.853828338161	821
16	25946	14.903828338161	826
16	25962	14.953828338161	831
16	26349	15.003828338161	836
16	26365	15.053828338161	841
16	26736	15.103828338161	846
16	26752	15.153828338161	851
16	27139	15.203828338161	856
16	27155	15.253828338161	861
16	27542	15.303828338161	866
16	27558	15.353828338161	871
16	27929	15.403828338161	876
16	27945	15.453828338161	881
16	28316	15.503828338161	886
16	28332	15.553828338161	891
16	28681	15.603828338161	896
16	28697	15.653828338161	901
16	29068	15.703828338161	906
16	29084	15.753828338161	911
16	29455	15.803828338161	916
16	29471	15.853828338161	921
16	29831	15.903828338161	926
16	29847	15.953828338161	931
16	30218	16.003828338161	936
16	30234	16.053828338161	941
16	30594	16.103828338161	946
16	30610	16.153828338161	951
16	30965	16.203828338161	956
16	30981	16.253828338161	961
16	31341	16.303828338161	966
16	31357	16.353828338161	971
16	31712	16.403828338161	976
16	31728	16.453828338161	981
16	32088	16.503828338161	986
16	32104	16.553828338161	991
16	32475	16.603828338161	996
16	32491	16.653828338161	1001
16	32851	16.703828338161	1006
16	32867	16.753828338161	1011
16	33238	16.803828338161	1016
16	33254	16.853828338161	1021
16	33641	16.903828338161	1026
16	33657	16.953828338161	1031
16	34044	17.003828338161	1036
16	34060	17.053828338161	1041
16	34431	17.103828338161	1046
16	34447	17.153828338161	1051
16	34807	17.203828338161	1056
16	34823	17.253828338161	1061
16	35178	17.303828338161	1066
16	35194	17.353828338161	1071
16	35565	17.403828338161	1076
16	35581	17.453828338161	1081
16	35941	17.503828338161	1086
16	35957	17.553828338161	1091
16	36328	17.603828338161	1096
16	36344	17.653828338161	1101
16	36704	17.703828338161	1106
16	36720	17.753828338161	1111
16	37069	17.803828338161	1116
16	37085	17.853828338161	1121
16	37456	17.903828338161	1126
16	37472	17.953828338161	1131
16	37843	18.003828338161	1136
16	37859	18.053828338161	1141
16	38246	18.103828338161	1146
16	38262	18.153828338161	1151
16	38617	18.203828338161	1156
16	38633	18.253828338161	1161
16	38993	18.303828338161	1166
16	39009	18.353828338161	1171
16	39380	18.403828338161	1176
16	39396	18.453828338161	1181
16	39756	18.503828338161	1186
16	39772	18.553828338161	1191
16	40132	18.603828338161	1196
16	40148	18.653828338161	1201
16	40508	18.703828338161	1206
16	40524	18.753828338161	1211
16	40895	18.803828338161	1216
16	40911	18.853828338161	1221
16	41282	18.903828338161	1226
16	41298	18.953828338161	1231
16	41653	19.003828338161	1236
16	41669	19.053828338161	1241
16	42040	19.103828338161	1246
16	42056	19.153828338161	1251
16	42427	19.203828338161	1256
16	42443	19.253828338161	1261
16	42814	19.303828338161	1266
16	42830	19.353828338161	1271
16	43201	19.403828338161	1276
16	43217	19.453828338161	1281
16	43588	19.503828338161	1286
16	43604	19.553828338161	1291
16	43975	19.603828338161	1296
16	43991	19.653828338161	1301
16	44362	19.703828338161	1306
16	44378	19.753828338161	1311
16	44733	19.803828338161	1316
16	44749	19.853828338161	1321
16	45109	19.903828338161	1326
16	45125	19.953828338161	1331
16	45485	20.003828338161	1336
16	45501	20.053828338161	1341
16	45872	20.103828338161	1346
16	45888	20.153828338161	1351
16	46248	20.203828338161	1356
16	46264	20.253828338161	1361
16	46635	20.303828338161	1366
16	46651	20.353828338161	1371
16	47011	20.403828338161	1376
16	47027	20.453828338161	1381
16	47387	20.503828338161	1386
16	47403	20.553828338161	1391
16	47774	20.603828338161	1396
16	47790	20.653828338161	1401
16	48150	20.703828338161	1406
16	48166	20.753828338161	1411
16	48537	20.803828338161	1416
16	48553	20.853828338161	1421
16	48924	20.903828338161	1426
16	48940	20.953828338161	1431
16	49311	21.003828338161	1436
16	49327	21.053828338161	1441
16	49682	21.103828338161	1446
16	49698	21.153828338161	1451
16	50058	21.203828338161	1456
16	50074	21.253828338161	1461
16	50445	21.303828338161	1466
16	50461	21.353828338161	1471
16	50848	21.403828338161	1476
16	50864	21.453828338161	1481
16	51235	21.503828338161	1486
16	51251	21.553828338161	1491
16	51606	21.603828338161	1496
16	51622	21.653828338161	1501
16	51977	21.703828338161	1506
16	51993	21.753828338161	1511
16	52380	21.803828338161	1516
16	52396	21.853828338161	1521
16	52751	21.903828338161	1526
16	52767	21.953828338161	1531
16	53122	22.003828338161	1536
16	53138	22.053828338161	1541
16	53509	22.103828338161	1546
16	53525	22.153828338161	1551
16	53896	22.203828338161	1556
16	53912	22.253828338161	1561
16	54283	22.303828338161	1566
16	54299	22.353828338161	1571
16	54659	22.403828338161	1576
16	54675	22.453828338161	1581
16	55046	22.503828338161	1586
16	55062	22.553828338161	1591
16	55433	22.603828338161	1596
16	55449	22.653828338161	1601
16	55836	22.703828338161	1606
16	55852	22.753828338161	1611
16	56223	22.803828338161	1616
16	56239	22.853828338161	1621
16	56626	22.903828338161	1626
16	56642	22.953828338161	1631
16	57013	23.003828338161	1636
16	57029	23.053828338161	1641
16	57378	23.103828338161	1646
16	57394	23.153828338161	1651
16	57765	23.203828338161	1656
16	57781	23.253828338161	1661
16	58152	23.303828338161	1666
16	58168	23.353828338161	1671
16	58539	23.403828338161	1676
16	58555	23.453828338161	1681
16	58910	23.503828338161	1686
16	58926	23.553828338161	1691
16	59297	23.603828338161	1696
16	59313	23.653828338161	1701
16	59684	23.703828338161	1706
16	59700	23.753828338161	1711
16	60071	23.803828338161	1716
16	60087	23.853828338161	1721
16	60458	23.903828338161	1726
16	60474	23.953828338161	1731
16	60834	24.003828338161	1736
16	60850	24.053828338161	1741
16	61205	24.103828338161	1746
16	61221	24.153828338161	1751
16	61581	24.203828338161	1756
16	61597	24.253828338161	1761
16	61968	24.303828338161	1766
16	61984	24.353828338161	1771
16	62339	24.403828338161	1776
16	62355	24.453828338161	1781
16	62726	24.503828338161	1786
16	62742	24.553828338161	1791
16	63113	24.603828338161	1796
16	63129	24.653828338161	1801
16	63489	24.703828338161	1806
16	63505	24.753828338161	1811
16	63860	24.803828338161	1816
16	63876	24.853828338161	1821
16	64247	24.903828338161	1826
16	64263	24.953828338161	1831
16	64634	25.003828338161	1836
16	64650	25.053828338161	1841
16	65010	25.103828338161	1846
16	65026	25.153828338161	1851
16	65397	25.203828338161	1856
16	65413	25.253828338161	1861
16	65768	25.303828338161	1866
16	65784	25.353828338161	1871
16	66139	25.403828338161	1876
16	66155	25.453828338161	1881
16	66526	25.503828338161	1886
16	66542	25.553828338161	1891
16	66902	25.603828338161	1896
16	66918	25.653828338161	1901
16	67289	25.703828338161	1906
16	67305	25.753828338161	1911
16	67676	25.803828338161	1916
16	67692	25.853828338161	1921
16	68063	25.903828338161	1926
16	68079	25.953828338161	1931
16	68439	26.003828338161	1936
16	68455	26.053828338161	1941
16	68815	26.103828338161	1946
16	68831	26.153828338161	1951
16	69218	26.203828338161	1956
16	69234	26.253828338161	1961
16	69605	26.303828338161	1966
16	69621	26.353828338161	1971
16	69992	26.403828338161	1976
16	70008	26.453828338161	1981
16	70395	26.503828338161	1986
16	70411	26.553828338161	1991
16	70771	26.603828338161	1996
16	70787	26.653828338161	2001
16	71158	26.703828338161	2006
16	71174	26.753828338161	2011
16	71534	26.803828338161	2016
16	71550	26.853828338161	2021
16	71905	26.903828338161	2026
16	71921	26.953828338161	2031
16	72292	27.003828338161	2036
16	72308	27.053828338161	2041
16	72679	27.103828338161	2046
16	72695	27.153828338161	2051
16	73050	27.203828338161	2056
16	73066	27.253828338161	2061
16	73421	27.303828338161	2066
16	73437	27.353828338161	2071
16	73808	27.403828338161	2076
16	73824	27.453828338161	2081
16	74179	27.503828338161	2086
16	74195	27.553828338161	2091
16	74555	27.603828338161	2096
16	74571	27.653828338161	2101
16	74942	27.703828338161	2106
16	74958	27.753828338161	2111
16	75329	27.803828338161	2116
16	75345	27.853828338161	2121
16	75716	27.903828338161	2126
16	75732	27.953828338161	2131
16	76092	28.003828338161	2136
16	76108	28.053828338161	2141
16	76463	28.103828338161	2146
16	76479	28.153828338161	2151
16	76839	28.203828338161	2156
16	76855	28.253828338161	2161
16	77226	28.303828338161	2166
16	77242	28.353828338161	2171
16	77602	28.403828338161	2176
16	77618	28.453828338161	2181
16	77978	28.503828338161	2186
16	77994	28.553828338161	2191
16	78354	28.603828338161	2196
16	78370	28.653828338161	2201
16	78741	28.703828338161	2206
16	78757	28.753828338161	2211
16	79117	28.803828338161	2216
16	79133	28.853828338161	2221
16	79488	28.903828338161	2226
16	79504	28.953828338161	2231
16	79875	29.003828338161	2236
16	79891	29.053828338161	2241
16	80262	29.103828338161	2246
16	80278	29.153828338161	2251
16	80627	29.203828338161	2256
16	80643	29.253828338161	2261
16	81030	29.303828338161	2266
16	81046	29.353828338161	2271
16	81417	29.403828338161	2276
16	81433	29.453828338161	2281
16	81793	29.503828338161	2286
16	81809	29.553828338161	2291
16	82164	29.603828338161	2296
16	82180	29.653828338161	2301
16	82535	29.703828338161	2306
16	82551	29.753828338161	2311
16	82911	29.803828338161	2316
16	82927	29.853828338161	2321
16	83298	29.903828338161	2326
16	83314	29.953828338161	2331
16	83701	30.003828338161	2336
16	83717	30.053828338161	2341
16	84077	30.103828338161	2346
16	84093	30.153828338161	2351
16	84464	30.203828338161	2356
16	84480	30.253828338161	2361
16	84851	30.303828338161	2366
16	84867	30.353828338161	2371
16	85238	30.403828338161	2376
16	85254	30.453828338161	2381
16	85603	30.503828338161	2386
16	85619	30.553828338161	2391
16	85990	30.603828338161	2396
16	86006	30.653828338161	2401
16	86377	30.703828338161	2406
16	86393	30.753828338161	2411
16	86753	30.803828338161	2416
16	86769	30.853828338161	2421
16	87129	30.903828338161	2426
16	87145	30.953828338161	2431
16	87516	31.003828338161	2436
16	87532	31.053828338161	2441
16	87903	31.103828338161	2446
16	87919	31.153828338161	2451
16	88290	31.203828338161	2456
16	88306	31.253828338161	2461
16	88661	31.303828338161	2466
16	88677	31.353828338161	2471
16	89048	31.403828338161	2476
16	89064	31.453828338161	2481
16	89424	31.503828338161	2486
16	89440	31.553828338161	2491
16	89827	31.603828338161	2496
16	89843	31.653828338161	2501
16	90203	31.703828338161	2506
16	90219	31.753828338161	2511
16	90579	31.803828338161	2516
16	90595	31.853828338161	2521
16	90944	31.903828338161	2526
16	90960	31.953828338161	2531
16	91347	32.003828338161	2536
16	91363	32.053828338161	2541
16	91723	32.103828338161	2546
16	91739	32.153828338161	2551
16	92126	32.203828338161	2556
16	92142	32.253828338161	2561
16	92513	32.303828338161	2566
16	92529	32.353828338161	2571
16	92900	32.403828338161	2576
16	92916	32.453828338161	2581
16	93271	32.503828338161	2586
16	93287	32.553828338161	2591
16	93642	32.603828338161	2596
16	93658	32.653828338161	2601
16	94013	32.703828338161	2606
16	94029	32.753828338161	2611
16	94384	32.803828338161	2616
16	94400	32.853828338161	2621
16	94755	32.903828338161	2626
16	94771	32.953828338161	2631
16	95142	33.003828338161	2636
16	95158	33.053828338161	2641
16	95529	33.103828338161	2646
16	95545	33.153828338161	2651
16	95905	33.203828338161	2656
16	95921	33.253828338161	2661
16	96292	33.303828338161	2666
16	96308	33.353828338161	2671
16	96668	33.403828338161	2676
16	96684	33.453828338161	2681
16	97055	33.503828338161	2686
16	97071	33.553828338161	2691
16	97458	33.603828338161	2696
16	97474	33.653828338161	2701
16	97861	33.703828338161	2706
16	97877	33.753828338161	2711
16	98248	33.803828338161	2716
16	98264	33.853828338161	2721
16	98651	33.903828338161	2726
16	98667	33.953828338161	2731
16	99038	34.003828338161	2736
16	99054	34.053828338161	2741
16	99409	34.103828338161	2746
16	99425	34.153828338161	2751
16	99780	34.203828338161	2756
16	99796	34.253828338161	2761
16	100167	34.303828338161	2766
16	100183	34.353828338161	2771
16	100554	34.403828338161	2776
16	100570	34.453828338161	2781
16	100941	34.503828338161	2786
16	100957	34.553828338161	2791
16	101328	34.603828338161	2796
16	101344	34.653828338161	2801
16	101715	34.703828338161	2806
16	101731	34.753828338161	2811
16	102102	34.803828338161	2816
16	102118	34.853828338161	2821
16	102505	34.903828338161	2826
16	102521	34.953828338161	2831
16	102892	35.003828338161	2836
16	102908	35.053828338161	2841
16	103279	35.103828338161	2846
16	103295	35.153828338161	2851
16	103650	35.203828338161	2856
16	103666	35.253828338161	2861
16	104053	35.303828338161	2866
16	104069	35.353828338161	2871
16	104440	35.403828338161	2876
16	104456	35.453828338161	2881
16	104827	35.503828338161	2886
16	104843	35.553828338161	2891
16	105214	35.603828338161	2896
16	105230	35.653828338161	2901
16	105617	35.703828338161	2906
16	105633	35.753828338161	2911
16	106004	35.803828338161	2916
16	106020	35.853828338161	2921
16	106407	35.903828338161	2926
16	106423	35.953828338161	2931
16	106778	36.003828338161	2936
16	106794	36.053828338161	2941
16	107154	36.103828338161	2946
16	107170	36.153828338161	2951
16	107541	36.203828338161	2956
16	107557	36.253828338161	2961
16	107917	36.303828338161	2966
16	107933	36.353828338161	2971
16	108304	36.403828338161	2976
16	108320	36.453828338161	2981
16	108707	36.503828338161	2986
16	108723	36.553828338161	2991
16	109094	36.603828338161	2996
16	109110	36.653828338161	3001
16	109481	36.703828338161	3006
16	109497	36.753828338161	3011
16	109852	36.803828338161	3016
16	109868	36.853828338161	3021
16	110239	36.903828338161	3026
16	110255	36.953828338161	3031
16	110626	37.003828338161	3036
16	110642	37.053828338161	3041
16	111029	37.103828338161	3046
16	111045	37.153828338161	3051
16	111405	37.203828338161	3056
16	111421	37.253828338161	3061
16	111781	37.303828338161	3066
16	111797	37.353828338161	3071
16	112146	37.403828338161	3076
16	112162	37.453828338161	3081
16	112533	37.503828338161	3086
16	112549	37.553828338161	3091
16	112920	37.603828338161	3096
16	112936	37.653828338161	3101
16	113307	37.703828338161	3106
16	113323	37.753828338161	3111
16	113683	37.803828338161	3116
16	113699	37.853828338161	3121
16	114070	37.903828338161	3126
16	114086	37.953828338161	3131
16	114441	38.003828338161	3136
16	114457	38.053828338161	3141
16	114828	38.103828338161	3146
16	114844	38.153828338161	3151
16	115204	38.203828338161	3156
16	115220	38.253828338161	3161
16	115591	38.303828338161	3166
16	115607	38.353828338161	3171
16	115962	38.403828338161	3176
16	115978	38.453828338161	3181
16	116338	38.503828338161	3186
16	116354	38.553828338161	3191
16	116741	38.603828338161	3196
16	116757	38.653828338161	3201
16	117106	38.703828338161	3206
16	117122	38.753828338161	3211
16	117493	38.803828338161	3216
16	117509	38.853828338161	3221
16	117869	38.903828338161	3226
16	117885	38.953828338161	3231
16	118245	39.003828338161	3236
16	118261	39.053828338161	3241
16	118648	39.103828338161	3246
16	118664	39.153828338161	3251
16	119035	39.203828338161	3256
16	119051	39.253828338161	3261
16	119422	39.303828338161	3266
16	119438	39.353828338161	3271
16	119809	39.403828338161	3276
16	119825	39.453828338161	3281
16	120180	39.503828338161	3286
16	120196	39.553828338161	3291
16	120583	39.603828338161	3296
16	120599	39.653828338161	3301
16	120959	39.703828338161	3306
16	120975	39.753828338161	3311
16	121346	39.803828338161	3316
16	121362	39.853828338161	3321
16	121717	39.903828338161	3326
16	121733	39.953828338161	3331
16	122104	40.003828338161	3336
16	122120	40.053828338161	3341
16	122491	40.103828338161	3346
16	122507	40.153828338161	3351
16	122878	40.203828338161	3356
16	122894	40.253828338161	3361
16	123265	40.303828338161	3366
16	123281	40.353828338161	3371
16	123641	40.403828338161	3376
16	123657	40.453828338161	3381
16	124006	40.503828338161	3386
16	124022	40.553828338161	3391
16	124393	40.603828338161	3396
16	124409	40.653828338161	3401
16	124758	40.703828338161	3406
16	124774	40.753828338161	3411
16	125145	40.803828338161	3416
16	125161	40.853828338161	3421
16	125521	40.903828338161	3426
16	125537	40.953828338161	3431
16	125924	41.003828338161	3436
16	125940	41.053828338161	3441
16	126289	41.103828338161	3446
16	126305	41.153828338161	3451
16	126665	41.203828338161	3456
16	126681	41.253828338161	3461
16	127052	41.303828338161	3466
16	127068	41.353828338161	3471
16	127439	41.403828338161	3476
16	127455	41.453828338161	3481
16	127826	41.503828338161	3486
16	127842	41.553828338161	3491
16	128197	41.603828338161	3496
16	128213	41.653828338161	3501
16	128584	41.703828338161	3506
16	128600	41.753828338161	3511
16	128960	41.803828338161	3516
16	128976	41.853828338161	3521
16	129347	41.903828338161	3526
16	129363	41.953828338161	3531
16	129723	42.003828338161	3536
16	129739	42.053828338161	3541
16	130110	42.103828338161	3546
16	130126	42.153828338161	3551
16	130481	42.203828338161	3556
16	130497	42.253828338161	3561
16	130868	42.303828338161	3566
16	130884	42.353828338161	3571
16	131255	42.403828338161	3576
16	131271	42.453828338161	3581
16	131626	42.503828338161	3586
16	131642	42.553828338161	3591
16	132029	42.603828338161	3596
16	132045	42.653828338161	3601
16	132416	42.703828338161	3606
16	132432	42.753828338161	3611
16	132803	42.803828338161	3616
16	132819	42.853828338161	3621
16	133174	42.903828338161	3626
16	133190	42.953828338161	3631
16	133561	43.003828338161	3636
16	133577	43.053828338161	3641
16	133948	43.103828338161	3646
16	133964	43.153828338161	3651
16	134319	43.203828338161	3656
16	134335	43.253828338161	3661
16	134690	43.303828338161	3666
16	134706	43.353828338161	3671
16	135061	43.403828338161	3676
16	135077	43.453828338161	3681
16	135437	43.503828338161	3686
16	135453	43.553828338161	3691
16	135824	43.603828338161	3696
16	135840	43.653828338161	3701
16	136195	43.703828338161	3706
16	136211	43.753828338161	3711
16	136582	43.803828338161	3716
16	136598	43.853828338161	3721
16	136953	43.903828338161	3726
16	136969	43.953828338161	3731
16	137340	44.003828338161	3736
16	137356	44.053828338161	3741
16	137716	44.103828338161	3746
16	137732	44.153828338161	3751
16	138081	44.203828338161	3756
16	138097	44.253828338161	3761
16	138468	44.303828338161	3766
16	138484	44.353828338161	3771
16	138871	44.403828338161	3776
16	138887	44.453828338161	3781
16	139274	44.503828338161	3786
16	139290	44.553828338161	3791
16	139661	44.603828338161	3796
16	139677	44.653828338161	3801
16	140048	44.703828338161	3806
16	140064	44.753828338161	3811
16	140435	44.803828338161	3816
16	140451	44.853828338161	3821
16	140806	44.903828338161	3826
16	140822	44.953828338161	3831
16	141182	45.003828338161	3836
16	141198	45.053828338161	3841
16	141558	45.103828338161	3846
16	141574	45.153828338161	3851
16	141945	45.203828338161	3856
16	141961	45.253828338161	3861
16	142321	45.303828338161	3866
16	142337	45.353828338161	3871
16	142708	45.403828338161	3876
16	142724	45.453828338161	3881
16	143084	45.503828338161	3886
16	143100	45.553828338161	3891
16	143471	45.603828338161	3896
16	143487	45.653828338161	3901
16	143858	45.703828338161	3906
16	143874	45.753828338161	3911
16	144229	45.803828338161	3916
16	144245	45.853828338161	3921
16	144616	45.903828338161	3926
16	144632	45.953828338161	3931
16	145003	46.003828338161	3936
16	145019	46.053828338161	3941
16	145390	46.103828338161	3946
16	145406	46.153828338161	3951
16	145777	46.203828338161	3956
16	145793	46.253828338161	3961
16	146164	46.303828338161	3966
16	146180	46.353828338161	3971
16	146540	46.403828338161	3976
16	146556	46.453828338161	3981
16	146943	46.503828338161	3986
16	146959	46.553828338161	3991
16	147330	46.603828338161	3996
16	147346	46.653828338161	4001
16	147695	46.703828338161	4006
16	147711	46.753828338161	4011
16	148098	46.803828338161	4016
16	148114	46.853828338161	4021
16	148501	46.903828338161	4026
16	148517	46.953828338161	4031
16	148877	47.003828338161	4036
16	148893	47.053828338161	4041
16	149253	47.103828338161	4046
16	149269	47.153828338161	4051
16	149629	47.203828338161	4056
16	149645	47.253828338161	4061
16	150005	47.303828338161	4066
16	150021	47.353828338161	4071
16	150392	47.403828338161	4076
16	150408	47.453828338161	4081
16	150779	47.503828338161	4086
16	150795	47.553828338161	4091
16	151166	47.603828338161	4096
16	151182	47.653828338161	4101
16	151553	47.703828338161	4106
16	151569	47.753828338161	4111
16	151940	47.803828338161	4116
16	151956	47.853828338161	4121
16	152327	47.903828338161	4126
16	152343	47.953828338161	4131
16	152714	48.003828338161	4136
16	152730	48.053828338161	4141
16	153090	48.103828338161	4146
16	153106	48.153828338161	4151
16	153466	48.203828338161	4156
16	153482	48.253828338161	4161
16	153853	48.303828338161	4166
16	153869	48.353828338161	4171
16	154229	48.403828338161	4176
16	154245	48.453828338161	4181
16	154600	48.503828338161	4186
16	154616	48.553828338161	4191
16	154976	48.603828338161	4196
16	154992	48.653828338161	4201
16	155363	48.703828338161	4206
16	155379	48.753828338161	4211
16	155750	48.803828338161	4216
16	155766	48.853828338161	4221
16	156137	48.903828338161	4226
16	156153	48.953828338161	4231
16	156524	49.003828338161	4236
16	156540	49.053828338161	4241
16	156911	49.103828338161	4246
16	156927	49.153828338161	4251
16	157298	49.203828338161	4256
16	157314	49.253828338161	4261
16	157674	49.303828338161	4266
16	157690	49.353828338161	4271
16	158061	49.403828338161	4276
16	158077	49.453828338161	4281
16	158437	49.503828338161	4286
16	158453	49.553828338161	4291
16	158824	49.603828338161	4296
16	158840	49.653828338161	4301
16	159211	49.703828338161	4306
16	159227	49.753828338161	4311
16	159598	49.803828338161	4316
16	159614	49.853828338161	4321
16	159974	49.903828338161	4326
16	159990	49.953828338161	4331
16	160345	50.003828338161	4336
16	160361	50.053828338161	4341
16	160732	50.103828338161	4346
16	160748	50.153828338161	4351
16	161135	50.203828338161	4356
16	161151	50.253828338161	4361
16	161511	50.303828338161	4366
16	161527	50.353828338161	4371
16	161898	50.403828338161	4376
16	161914	50.453828338161	4381
16	162274	50.503828338161	4386
16	162290	50.553828338161	4391
16	162645	50.603828338161	4396
16	162661	50.653828338161	4401
16	163032	50.703828338161	4406
16	163048	50.753828338161	4411
16	163419	50.803828338161	4416
16	163435	50.853828338161	4421
16	163806	50.903828338161	4426
16	163822	50.953828338161	4431
16	164182	51.003828338161	4436
16	164198	51.053828338161	4441
16	164553	51.103828338161	4446
16	164569	51.153828338161	4451
16	164940	51.203828338161	4456
16	164956	51.253828338161	4461
16	165327	51.303828338161	4466
16	165343	51.353828338161	4471
16	165714	51.403828338161	4476
16	165730	51.453828338161	4481
16	166101	51.503828338161	4486
16	166117	51.553828338161	4491
16	166477	51.603828338161	4496
16	166493	51.653828338161	4501
16	166853	51.703828338161	4506
16	166869	51.753828338161	4511
16	167224	51.803828338161	4516
16	167240	51.853828338161	4521
16	167611	51.903828338161	4526
16	167627	51.953828338161	4531
16	167998	52.003828338161	4536
16	168014	52.053828338161	4541
16	168385	52.103828338161	4546
16	168401	52.153828338161	4551
16	168761	52.203828338161	4556
16	168777	52.253828338161	4561
16	169137	52.303828338161	4566
16	169153	52.353828338161	4571
16	169524	52.403828338161	4576
16	169540	52.453828338161	4581
16	169911	52.503828338161	4586
16	169927	52.553828338161	4591
16	170282	52.603828338161	4596
16	170298	52.653828338161	4601
16	170647	52.703828338161	4606
16	170663	52.753828338161	4611
16	171050	52.803828338161	4616
16	171066	52.853828338161	4621
16	171421	52.903828338161	4626
16	171437	52.953828338161	4631
16	171808	53.003828338161	4636
16	171824	53.053828338161	4641
16	172195	53.103828338161	4646
16	172211	53.153828338161	4651
16	172566	53.203828338161	4656
16	172582	53.253828338161	4661
16	172953	53.303828338161	4666
16	172969	53.353828338161	4671
16	173340	53.403828338161	4676
16	173356	53.453828338161	4681
16	173727	53.503828338161	4686
16	173743	53.553828338161	4691
16	174114	53.603828338161	4696
16	174130	53.653828338161	4701
16	174501	53.703828338161	4706
16	174517	53.753828338161	4711
16	174872	53.803828338161	4716
16	174888	53.853828338161	4721
16	175259	53.903828338161	4726
16	175275	53.953828338161	4731
16	175646	54.003828338161	4736
16	175662	54.053828338161	4741
16	176033	54.103828338161	4746
16	176049	54.153828338161	4751
16	176420	54.203828338161	4756
16	176436	54.253828338161	4761
16	176807	54.303828338161	4766
16	176823	54.353828338161	4771
16	177183	54.403828338161	4776
16	177199	54.453828338161	4781
16	177554	54.503828338161	4786
16	177570	54.553828338161	4791
16	177957	54.603828338161	4796
16	177973	54.653828338161	4801
16	178333	54.703828338161	4806
16	178349	54.753828338161	4811
16	178720	54.803828338161	4816
16	178736	54.853828338161	4821
16	179107	54.903828338161	4826
16	179123	54.953828338161	4831
16	179483	55.003828338161	4836
16	179499	55.053828338161	4841
16	179870	55.103828338161	4846
16	179886	55.153828338161	4851
16	180246	55.203828338161	4856
16	180262	55.253828338161	4861
16	180622	55.303828338161	4866
16	180638	55.353828338161	4871
16	181009	55.403828338161	4876
16	181025	55.453828338161	4881
16	181396	55.503828338161	4886
16	181412	55.553828338161	4891
16	181799	55.603828338161	4896
16	181815	55.653828338161	4901
16	182170	55.703828338161	4906
16	182186	55.753828338161	4911
16	182573	55.803828338161	4916
16	182589	55.853828338161	4921
16	182944	55.903828338161	4926
16	182960	55.953828338161	4931
16	183320	56.003828338161	4936
16	183336	56.053828338161	4941
16	183707	56.103828338161	4946
16	183723	56.153828338161	4951
16	184078	56.203828338161	4956
16	184094	56.253828338161	4961
16	184465	56.303828338161	4966
16	184481	56.353828338161	4971
16	184841	56.403828338161	4976
16	184857	56.453828338161	4981
16	185212	56.503828338161	4986
16	185228	56.553828338161	4991
16	185599	56.603828338161	4996
16	185615	56.653828338161	5001
16	185986	56.703828338161	5006
16	186002	56.753828338161	5011
16	186373	56.803828338161	5016
16	186389	56.853828338161	5021
16	186760	56.903828338161	5026
16	186776	56.953828338161	5031
16	187125	57.003828338161	5036
16	187141	57.053828338161	5041
16	187512	57.103828338161	5046
16	187528	57.153828338161	5051
16	187899	57.203828338161	5056
16	187915	57.253828338161	5061
16	188275	57.303828338161	5066
16	188291	57.353828338161	5071
16	188662	57.403828338161	5076
16	188678	57.453828338161	5081
16	189049	57.503828338161	5086
16	189065	57.553828338161	5091
16	189436	57.603828338161	5096
16	189452	57.653828338161	5101
16	189823	57.703828338161	5106
16	189839	57.753828338161	5111
16	190210	57.803828338161	5116
16	190226	57.853828338161	5121
16	190586	57.903828338161	5126
16	190602	57.953828338161	5131
16	190957	58.003828338161	5136
16	190973	58.053828338161	5141
16	191344	58.103828338161	5146
16	191360	58.153828338161	5151
16	191731	58.203828338161	5156
16	191747	58.253828338161	5161
16	192118	58.303828338161	5166
16	192134	58.353828338161	5171
16	192505	58.403828338161	5176
16	192521	58.453828338161	5181
16	192876	58.503828338161	5186
16	192892	58.553828338161	5191
16	193247	58.603828338161	5196
16	193263	58.653828338161	5201
16	193634	58.703828338161	5206
16	193650	58.753828338161	5211
16	194005	58.803828338161	5216
16	194021	58.853828338161	5221
16	194392	58.903828338161	5226
16	194408	58.953828338161	5231
16	194779	59.003828338161	5236
16	194795	59.053828338161	5241
16	195150	59.103828338161	5246
16	195166	59.153828338161	5251
16	195526	59.203828338161	5256
16	195542	59.253828338161	5261
16	195913	59.303828338161	5266
16	195929	59.353828338161	5271
16	196300	59.403828338161	5276
16	196316	59.453828338161	5281
16	196687	59.503828338161	5286
16	196703	59.553828338161	5291
16	197090	59.603828338161	5296
16	197106	59.653828338161	5301
16	197477	59.703828338161	5306
16	197493	59.753828338161	5311
16	197864	59.803828338161	5316
16	197880	59.853828338161	5321
16	198251	59.903828338161	5326
16	198267	59.953828338161	5331
16	198627	60.003828338161	5336
[...]
14	136209	43.75006282191	0.001
14	136580	43.80006282191	0.002
14	136596	43.85006282191	0.001
14	136951	43.90006282191	0.002
14	136967	43.95006282191	0.001
14	137338	44.00006282191	0.002
14	137354	44.05006282191	0.001
14	137714	44.10006282191	0.002
14	137730	44.15006282191	0.001
14	138079	44.20006282191	0.002
14	138095	44.25006282191	0.001
14	138466	44.30006282191	0.002
14	138482	44.35006282191	0.001
14	138869	44.40006282191	0.002
14	138885	44.45006282191	0.001
14	139272	44.50006282191	0.002
14	139288	44.55006282191	0.001
14	139659	44.60006282191	0.002
14	139675	44.65006282191	0.001
14	140046	44.70006282191	0.002
14	140062	44.75006282191	0.001
14	140433	44.80006282191	0.002
14	140449	44.85006282191	0.001
14	140804	44.90006282191	0.002
14	140820	44.95006282191	0.001
14	141180	45.00006282191	0.002
14	141196	45.05006282191	0.001
14	141556	45.10006282191	0.002
14	141572	45.15006282191	0.001
14	141943	45.20006282191	0.002
14	141959	45.25006282191	0.001
14	142319	45.30006282191	0.002
14	142335	45.35006282191	0.001
14	142706	45.40006282191	0.002
14	142722	45.45006282191	0.001
14	143082	45.50006282191	0.002
14	143098	45.55006282191	0.001
14	143469	45.60006282191	0.002
14	143485	45.65006282191	0.001
14	143856	45.70006282191	0.002
14	143872	45.75006282191	0.001
14	144227	45.80006282191	0.002
14	144243	45.85006282191	0.001
14	144614	45.90006282191	0.002
14	144630	45.95006282191	0.001
14	145001	46.00006282191	0.002
14	145017	46.05006282191	0.001
14	145388	46.10006282191	0.002
14	145404	46.15006282191	0.001
14	145775	46.20006282191	0.002
14	145791	46.25006282191	0.001
14	146162	46.30006282191	0.002
14	146178	46.35006282191	0.001
14	146538	46.40006282191	0.002
14	146554	46.45006282191	0.001
14	146941	46.50006282191	0.002
14	146957	46.55006282191	0.001
14	147328	46.60006282191	0.002
14	147344	46.65006282191	0.001
14	147693	46.70006282191	0.002
14	147709	46.75006282191	0.001
14	148096	46.80006282191	0.002
14	148112	46.85006282191	0.001
14	148499	46.90006282191	0.002
14	148515	46.95006282191	0.001
14	148875	47.00006282191	0.002
14	148891	47.05006282191	0.001
14	149251	47.10006282191	0.002
14	149267	47.15006282191	0.001
14	149627	47.20006282191	0.002
14	149643	47.25006282191	0.001
14	150003	47.30006282191	0.002
14	150019	47.35006282191	0.001
14	150390	47.40006282191	0.002
14	150406	47.45006282191	0.001
14	150777	47.50006282191	0.002
14	150793	47.55006282191	0.001
14	151164	47.60006282191	0.002
14	151180	47.65006282191	0.001
14	151551	47.70006282191	0.002
14	151567	47.75006282191	0.001
14	151938	47.80006282191	0.002
14	151954	47.85006282191	0.001
14	152325	47.90006282191	0.002
14	152341	47.95006282191	0.001
14	152712	48.00006282191	0.002
14	152728	48.05006282191	0.001
14	153088	48.10006282191	0.002
14	153104	48.15006282191	0.001
14	153464	48.20006282191	0.002
14	153480	48.25006282191	0.001
14	153851	48.30006282191	0.002
14	153867	48.35006282191	0.001
14	154227	48.40006282191	0.002
14	154243	48.45006282191	0.001
14	154598	48.50006282191	0.002
14	154614	48.55006282191	0.001
14	154974	48.60006282191	0.002
14	154990	48.65006282191	0.001
14	155361	48.70006282191	0.002
14	155377	48.75006282191	0.001
14	155748	48.80006282191	0.002
14	155764	48.85006282191	0.001
14	156135	48.90006282191	0.002
14	156151	48.95006282191	0.001
14	156522	49.00006282191	0.002
14	156538	49.05006282191	0.001
14	156909	49.10006282191	0.002
14	156925	49.15006282191	0.001
14	157296	49.20006282191	0.002
14	157312	49.25006282191	0.001
14	157672	49.30006282191	0.002
14	157688	49.35006282191	0.001
14	158059	49.40006282191	0.002
14	158075	49.45006282191	0.001
14	158435	49.50006282191	0.002
14	158451	49.55006282191	0.001
14	158822	49.60006282191	0.002
14	158838	49.65006282191	0.001
14	159209	49.70006282191	0.002
14	159225	49.75006282191	0.001
14	159596	49.80006282191	0.002
14	159612	49.85006282191	0.001
14	159972	49.90006282191	0.002
14	159988	49.95006282191	0.001
14	160343	50.00006282191	0.002
14	160359	50.05006282191	0.001
14	160730	50.10006282191	0.002
14	160746	50.15006282191	0.001
14	161133	50.20006282191	0.002
14	161149	50.25006282191	0.001
14	161509	50.30006282191	0.002
14	161525	50.35006282191	0.001
14	161896	50.40006282191	0.002
14	161912	50.45006282191	0.001
14	162272	50.50006282191	0.002
14	162288	50.55006282191	0.001
14	162643	50.60006282191	0.002
14	162659	50.65006282191	0.001
14	163030	50.70006282191	0.002
14	163046	50.75006282191	0.001
14	163417	50.80006282191	0.002
14	163433	50.85006282191	0.001
14	163804	50.90006282191	0.002
14	163820	50.95006282191	0.001
14	164180	51.00006282191	0.002
14	164196	51.05006282191	0.001
14	164551	51.10006282191	0.002
14	164567	51.15006282191	0.001
14	164938	51.20006282191	0.002
14	164954	51.25006282191	0.001
14	165325	51.30006282191	0.002
14	165341	51.35006282191	0.001
14	165712	51.40006282191	0.002
14	165728	51.45006282191	0.001
14	166099	51.50006282191	0.002
14	166115	51.55006282191	0.001
14	166475	51.60006282191	0.002
14	166491	51.65006282191	0.001
14	166851	51.70006282191	0.002
14	166867	51.75006282191	0.001
14	167222	51.80006282191	0.002
14	167238	51.85006282191	0.001
14	167609	51.90006282191	0.002
14	167625	51.95006282191	0.001
14	167996	52.00006282191	0.002
14	168012	52.05006282191	0.001
14	168383	52.10006282191	0.002
14	168399	52.15006282191	0.001
14	168759	52.20006282191	0.002
14	168775	52.25006282191	0.001
14	169135	52.30006282191	0.002
14	169151	52.35006282191	0.001
14	169522	52.40006282191	0.002
14	169538	52.45006282191	0.001
14	169909	52.50006282191	0.002
14	169925	52.55006282191	0.001
14	170280	52.60006282191	0.002
14	170296	52.65006282191	0.001
14	170645	52.70006282191	0.002
14	170661	52.75006282191	0.001
14	171048	52.80006282191	0.002
14	171064	52.85006282191	0.001
14	171419	52.90006282191	0.002
14	171435	52.95006282191	0.001
14	171806	53.00006282191	0.002
14	171822	53.05006282191	0.001
14	172193	53.10006282191	0.002
14	172209	53.15006282191	0.001
14	172564	53.20006282191	0.002
14	172580	53.25006282191	0.001
14	172951	53.30006282191	0.002
14	172967	53.35006282191	0.001
14	173338	53.40006282191	0.002
14	173354	53.45006282191	0.001
14	173725	53.50006282191	0.002
14	173741	53.55006282191	0.001
14	174112	53.60006282191	0.002
14	174128	53.65006282191	0.001
14	174499	53.70006282191	0.002
14	174515	53.75006282191	0.001
14	174870	53.80006282191	0.002
14	174886	53.85006282191	0.001
14	175257	53.90006282191	0.002
14	175273	53.95006282191	0.001
14	175644	54.00006282191	0.002
14	175660	54.05006282191	0.001
14	176031	54.10006282191	0.002
14	176047	54.15006282191	0.001
14	176418	54.20006282191	0.002
14	176434	54.25006282191	0.001
14	176805	54.30006282191	0.002
14	176821	54.35006282191	0.001
14	177181	54.40006282191	0.002
14	177197	54.45006282191	0.001
14	177552	54.50006282191	0.002
14	177568	54.55006282191	0.001
14	177955	54.60006282191	0.002
14	177971	54.65006282191	0.001
14	178331	54.70006282191	0.002
14	178347	54.75006282191	0.001
14	178718	54.80006282191	0.002
14	178734	54.85006282191	0.001
14	179105	54.90006282191	0.002
14	179121	54.95006282191	0.001
14	179481	55.00006282191	0.002
14	179497	55.05006282191	0.001
14	179868	55.10006282191	0.002
14	179884	55.15006282191	0.001
14	180244	55.20006282191	0.002
14	180260	55.25006282191	0.001
14	180620	55.30006282191	0.002
14	180636	55.35006282191	0.001
14	181007	55.40006282191	0.002
14	181023	55.45006282191	0.001
14	181394	55.50006282191	0.002
14	181410	55.55006282191	0.001
14	181797	55.60006282191	0.002
14	181813	55.65006282191	0.001
14	182168	55.70006282191	0.002
14	182184	55.75006282191	0.001
14	182571	55.80006282191	0.002
14	182587	55.85006282191	0.001
14	182942	55.90006282191	0.002
14	182958	55.95006282191	0.001
14	183318	56.00006282191	0.002
14	183334	56.05006282191	0.001
14	183705	56.10006282191	0.002
14	183721	56.15006282191	0.001
14	184076	56.20006282191	0.002
14	184092	56.25006282191	0.001
14	184463	56.30006282191	0.002
14	184479	56.35006282191	0.001
14	184839	56.40006282191	0.002
14	184855	56.45006282191	0.001
14	185210	56.50006282191	0.002
14	185226	56.55006282191	0.001
14	185597	56.60006282191	0.002
14	185613	56.65006282191	0.001
14	185984	56.70006282191	0.002
14	186000	56.75006282191	0.001
14	186371	56.80006282191	0.002
14	186387	56.85006282191	0.001
14	186758	56.90006282191	0.002
14	186774	56.95006282191	0.001
14	187123	57.00006282191	0.002
14	187139	57.05006282191	0.001
14	187510	57.10006282191	0.002
14	187526	57.15006282191	0.001
14	187897	57.20006282191	0.002
14	187913	57.25006282191	0.001
14	188273	57.30006282191	0.002
14	188289	57.35006282191	0.001
14	188660	57.40006282191	0.002
14	188676	57.45006282191	0.001
14	189047	57.50006282191	0.002
14	189063	57.55006282191	0.001
14	189434	57.60006282191	0.002
14	189450	57.65006282191	0.001
14	189821	57.70006282191	0.002
14	189837	57.75006282191	0.001
14	190208	57.80006282191	0.002
14	190224	57.85006282191	0.001
14	190584	57.90006282191	0.002
14	190600	57.95006282191	0.001
14	190955	58.00006282191	0.002
14	190971	58.05006282191	0.001
14	191342	58.10006282191	0.002
14	191358	58.15006282191	0.001
14	191729	58.20006282191	0.002
14	191745	58.25006282191	0.001
14	192116	58.30006282191	0.002
14	192132	58.35006282191	0.001
14	192503	58.40006282191	0.002
14	192519	58.45006282191	0.001
14	192874	58.50006282191	0.002
14	192890	58.55006282191	0.001
14	193245	58.60006282191	0.002
14	193261	58.65006282191	0.001
14	193632	58.70006282191	0.002
14	193648	58.75006282191	0.001
14	194003	58.80006282191	0.002
14	194019	58.85006282191	0.001
14	194390	58.90006282191	0.002
14	194406	58.95006282191	0.001
14	194777	59.00006282191	0.002
14	194793	59.05006282191	0.001
14	195148	59.10006282191	0.002
14	195164	59.15006282191	0.001
14	195524	59.20006282191	0.002
14	195540	59.25006282191	0.001
14	195911	59.30006282191	0.002
14	195927	59.35006282191	0.001
14	196298	59.40006282191	0.002
14	196314	59.45006282191	0.001
14	196685	59.50006282191	0.002
14	196701	59.55006282191	0.001
14	197088	59.60006282191	0.002
14	197104	59.65006282191	0.001
14	197475	59.70006282191	0.002
14	197491	59.75006282191	0.001
14	197862	59.80006282191	0.002
14	197878	59.85006282191	0.001
14	198249	59.90006282191	0.002
14	198265	59.95006282191	0.001
14	198625	60.00006282191	0.002
14	198641	60.05006282191	0.001
14	198996	60.10006282191	0.002
14	199012	60.15006282191	0.001
14	199383	60.20006282191	0.002
14	199399	60.25006282191	0.001
14	199770	60.30006282191	0.002
14	199786	60.35006282191	0.001
14	200157	60.40006282191	0.002
14	200173	60.45006282191	0.001
14	200533	60.50006282191	0.002
14	200549	60.55006282191	0.001
14	200904	60.60006282191	0.002
14	200920	60.65006282191	0.001
14	201275	60.70006282191	0.002
14	201291	60.75006282191	0.001
14	201646	60.80006282191	0.002
14	201662	60.85006282191	0.001
14	202017	60.90006282191	0.002
14	202033	60.95006282191	0.001
14	202420	61.00006282191	0.002
14	202436	61.05006282191	0.001
14	202791	61.10006282191	0.002
14	202807	61.15006282191	0.001
14	203178	61.20006282191	0.002
14	203194	61.25006282191	0.001
14	203554	61.30006282191	0.002
14	203570	61.35006282191	0.001
14	203957	61.40006282191	0.002
14	203973	61.45006282191	0.001
14	204344	61.50006282191	0.002
14	204360	61.55006282191	0.001
14	204731	61.60006282191	0.002
14	204747	61.65006282191	0.001
14	205117	61.70006282191	0.002
14	205130	61.75006282191	0.001
14	205370	61.80006282191	0.002
14	205383	61.85006282191	0.001
14	205632	61.90006282191	0.002
14	205645	61.95006282191	0.001
14	205894	62.00006282191	0.002
14	205907	62.05006282191	0.001
14	206169	62.10006282191	0.002
14	206182	62.15006282191	0.001
14	206444	62.20006282191	0.002
14	206457	62.25006282191	0.001
14	206706	62.30006282191	0.002
14	206719	62.35006282191	0.001
14	206968	62.40006282191	0.002
14	206981	62.45006282191	0.001
14	207243	62.50006282191	0.002
14	207256	62.55006282191	0.001
14	207505	62.60006282191	0.002
14	207518	62.65006282191	0.001
14	207780	62.70006282191	0.002
14	207793	62.75006282191	0.001
14	208042	62.80006282191	0.002
14	208055	62.85006282191	0.001
14	208304	62.90006282191	0.002
14	208317	62.95006282191	0.001
14	208566	63.00006282191	0.002
14	208579	63.05006282191	0.001
14	208841	63.10006282191	0.002
14	208854	63.15006282191	0.001
14	209116	63.20006282191	0.002
14	209129	63.25006282191	0.001
14	209378	63.30006282191	0.002
14	209391	63.35006282191	0.001
14	209640	63.40006282191	0.002
14	209653	63.45006282191	0.001
14	209915	63.50006282191	0.002
14	209928	63.55006282191	0.001
14	210190	63.60006282191	0.002
14	210203	63.65006282191	0.001
14	210452	63.70006282191	0.002
14	210465	63.75006282191	0.001
14	210727	63.80006282191	0.002
14	210740	63.85006282191	0.001
14	210980	63.90006282191	0.002
14	210993	63.95006282191	0.001
14	211242	64.00006282191	0.002
14	211255	64.05006282191	0.001
14	211517	64.10006282191	0.002
14	211530	64.15006282191	0.001
14	211779	64.20006282191	0.002
14	211792	64.25006282191	0.001
14	212054	64.30006282191	0.002
14	212067	64.35006282191	0.001
14	212316	64.40006282191	0.002
14	212329	64.45006282191	0.001
14	212591	64.50006282191	0.002
14	212604	64.55006282191	0.001
14	212853	64.60006282191	0.002
14	212866	64.65006282191	0.001
14	213114	64.70006282191	0.002
14	213124	64.75006282191	0.001
14	213285	64.80006282191	0.002
14	213295	64.85006282191	0.001
14	213456	64.90006282191	0.002
14	213466	64.95006282191	0.001
14	213627	65.00006282191	0.002
14	213637	65.05006282191	0.001
14	213798	65.10006282191	0.002
14	213808	65.15006282191	0.001
14	213959	65.20006282191	0.002
14	213969	65.25006282191	0.001
14	214120	65.30006282191	0.002
14	214130	65.35006282191	0.001
14	214291	65.40006282191	0.002
14	214301	65.45006282191	0.001
14	214462	65.50006282191	0.002
14	214472	65.55006282191	0.001
14	214633	65.60006282191	0.002
14	214643	65.65006282191	0.001
14	214804	65.70006282191	0.002
14	214814	65.75006282191	0.001
14	214975	65.80006282191	0.002
14	214985	65.85006282191	0.001
14	215146	65.90006282191	0.002
14	215156	65.95006282191	0.001
14	215307	66.00006282191	0.002
14	215317	66.05006282191	0.001
14	215478	66.10006282191	0.002
14	215488	66.15006282191	0.001
14	215649	66.20006282191	0.002
14	215659	66.25006282191	0.001
14	215810	66.30006282191	0.002
14	215820	66.35006282191	0.001
14	215981	66.40006282191	0.002
14	215991	66.45006282191	0.001
14	216152	66.50006282191	0.002
14	216162	66.55006282191	0.001
14	216323	66.60006282191	0.002
14	216333	66.65006282191	0.001
14	216484	66.70006282191	0.002
14	216494	66.75006282191	0.001
14	216655	66.80006282191	0.002
14	216665	66.85006282191	0.001
14	216816	66.90006282191	0.002
14	216826	66.95006282191	0.001
14	216987	67.00006282191	0.002
14	216997	67.05006282191	0.001
14	217158	67.10006282191	0.002
14	217168	67.15006282191	0.001
14	217319	67.20006282191	0.002
14	217329	67.25006282191	0.001
14	217490	67.30006282191	0.002
14	217500	67.35006282191	0.001
14	217651	67.40006282191	0.002
14	217661	67.45006282191	0.001
14	217822	67.50006282191	0.002
14	217832	67.55006282191	0.001
14	217993	67.60006282191	0.002
14	218003	67.65006282191	0.001
14	218153	67.70006282191	0.002
14	218160	67.75006282191	0.001
14	218244	67.80006282191	0.002
14	218251	67.85006282191	0.001
14	218335	67.90006282191	0.002
14	218342	67.95006282191	0.001
14	218426	68.00006282191	0.002
14	218433	68.05006282191	0.001
14	218517	68.10006282191	0.002
14	218524	68.15006282191	0.001
14	218608	68.20006282191	0.002
14	218615	68.25006282191	0.001
14	218699	68.30006282191	0.002
14	218706	68.35006282191	0.001
14	218790	68.40006282191	0.002
14	218797	68.45006282191	0.001
14	218881	68.50006282191	0.002
14	218888	68.55006282191	0.001
14	218972	68.60006282191	0.002
14	218979	68.65006282191	0.001
14	219063	68.70006282191	0.002
14	219070	68.75006282191	0.001
14	219154	68.80006282191	0.002
14	219161	68.85006282191	0.001
14	219245	68.90006282191	0.002
14	219252	68.95006282191	0.001
14	219336	69.00006282191	0.002
14	219343	69.05006282191	0.001
14	219427	69.10006282191	0.002
14	219434	69.15006282191	0.001
14	219518	69.20006282191	0.002
14	219525	69.25006282191	0.001
14	219609	69.30006282191	0.002
14	219616	69.35006282191	0.001
14	219700	69.40006282191	0.002
14	219707	69.45006282191	0.001
14	219791	69.50006282191	0.002
14	219798	69.55006282191	0.001
14	219882	69.60006282191	0.002
14	219889	69.65006282191	0.001
14	219973	69.70006282191	0.002
14	219980	69.75006282191	0.001
14	220064	69.80006282191	0.002
14	220071	69.85006282191	0.001
14	220155	69.90006282191	0.002
14	220162	69.95006282191	0.001
14	220246	70.00006282191	0.002
14	220253	70.05006282191	0.001
14	220337	70.10006282191	0.002
14	220344	70.15006282191	0.001
14	220428	70.20006282191	0.002
14	220435	70.25006282191	0.001
14	220519	70.30006282191	0.002
14	220526	70.35006282191	0.001
14	220610	70.40006282191	0.002
14	220617	70.45006282191	0.001
14	220700	70.50006282191	0.002
14	220704	70.55006282191	0.001
14	220735	70.60006282191	0.002
14	220739	70.65006282191	0.001
14	220770	70.70006282191	0.002
14	220774	70.75006282191	0.001
14	220805	70.80006282191	0.002
14	220809	70.85006282191	0.001
14	220840	70.90006282191	0.002
14	220844	70.95006282191	0.001
14	220875	71.00006282191	0.002
14	220879	71.05006282191	0.001
14	220910	71.10006282191	0.002
14	220914	71.15006282191	0.001
14	220945	71.20006282191	0.002
14	220949	71.25006282191	0.001
14	220980	71.30006282191	0.002
14	220984	71.35006282191	0.001
14	221015	71.40006282191	0.002
14	221019	71.45006282191	0.001
14	221050	71.50006282191	0.002
14	221054	71.55006282191	0.001
14	221085	71.60006282191	0.002
14	221089	71.65006282191	0.001
14	221120	71.70006282191	0.002
14	221124	71.75006282191	0.001
14	221155	71.80006282191	0.002
14	221159	71.85006282191	0.001
14	221190	71.90006282191	0.002
14	221194	71.95006282191	0.001
14	221225	72.00006282191	0.002
14	221229	72.05006282191	0.001
14	221260	72.10006282191	0.002
14	221264	72.15006282191	0.001
14	221295	72.20006282191	0.002
14	221299	72.25006282191	0.001
14	221330	72.30006282191	0.002
14	221334	72.35006282191	0.001
14	221365	72.40006282191	0.002
14	221369	72.45006282191	0.001
14	221400	72.50006282191	0.002
14	221404	72.55006282191	0.001
14	221435	72.60006282191	0.002
14	221439	72.65006282191	0.001
14	221470	72.70006282191	0.002
14	221474	72.75006282191	0.001
14	221505	72.80006282191	0.002
14	221509	72.85006282191	0.001
14	221540	72.90006282191	0.002
14	221544	72.95006282191	0.001
14	221575	73.00006282191	0.002
14	221579	73.05006282191	0.001
14	221610	73.10006282191	0.002
14	221614	73.15006282191	0.001
14	221645	73.20006282191	0.002
14	221649	73.25006282191	0.001
14	221680	73.30006282191	0.002
14	221684	73.35006282191	0.001
14	221715	73.40006282191	0.002
14	221719	73.45006282191	0.001
14	221750	73.50006282191	0.002
14	221754	73.55006282191	0.001
14	221785	73.60006282191	0.002
14	221786	73.65006282191	0.001
14	221787	73.70006282191	0.002
14	221788	73.75006282191	0.001
14	221789	73.80006282191	0.002
14	221790	73.85006282191	0.001
14	221791	73.90006282191	0.002
14	221792	73.95006282191	0.001
14	221793	74.00006282191	0.002
14	221794	74.05006282191	0.001
14	221795	74.10006282191	0.002
14	221796	74.15006282191	0.001
14	221797	74.20006282191	0.002
14	221798	74.25006282191	0.001
14	221799	74.30006282191	0.002
14	221800	74.35006282191	0.001
14	221801	74.40006282191	0.002
14	221802	74.45006282191	0.001
14	221803	74.50006282191	0.002
14	221804	74.55006282191	0.001
14	221805	74.60006282191	0.002
14	221806	74.65006282191	0.001
14	221807	74.70006282191	0.002
14	221808	74.75006282191	0.001
14	221809	74.80006282191	0.002
14	221810	74.85006282191	0.001
14	221811	74.90006282191	0.002
14	221812	74.95006282191	0.001
14	221813	75.00006282191	0.002
14	221814	75.05006282191	0.001
14	221815	75.10006282191	0.002
14	221816	75.15006282191	0.001
14	221817	75.20006282191	0.002
14	221818	75.25006282191	0.001
14	221819	75.30006282191	0.002
14	221820	75.35006282191	0.001
14	221821	75.40006282191	0.002
14	221822	75.45006282191	0.001
14	221823	75.50006282191	0.002
14	221824	75.55006282191	0.001
14	221825	75.60006282191	0.002
14	221826	75.65006282191	0.001
14	221827	75.70006282191	0.002
14	221828	75.75006282191	0.001
14	221829	75.80006282191	0.002
14	221830	75.85006282191	0.001
14	221831	75.90006282191	0.002
14	221832	75.95006282191	0.001
