version 2
run VoIP-30ms_280B-6-20160923-14:14:05-14681
attr configname VoIP-30ms_280B
attr datetime 20160923-14:14:05
attr experiment VoIP-30ms_280B
attr inifile omnetpp.ini
attr iterationvars ""
attr iterationvars2 $repetition=6
attr measurement ""
attr network SymScenerio
attr processid 14681
attr repetition 6
attr replication #6
attr resultdir results
attr runnumber 6
attr seedset 6
param **.coreDebug false
param **.debug false
param *.**.nic.mac1609_4.bitrate 18Mbps
param *.**.nic.mac1609_4.txPower 20mW
param *.**.nic.mac1609_4.useServiceChannel true
param *.**.nic.phy80211p.analogueModels "xmldoc(\"config.xml\")"
param *.**.nic.phy80211p.decider "xmldoc(\"config.xml\")"
param *.**.nic.phy80211p.sensitivity -89dBm
param *.**.nic.phy80211p.thermalNoise -110dBm
param *.**.nic.phy80211p.usePropagationDelay true
param *.**.nic.phy80211p.useThermalNoise true
param *.annotations.draw false
param *.connectionManager.alpha 2.0
param *.connectionManager.carrierFrequency "5.890e9 Hz"
param *.connectionManager.pMax 20mW
param *.connectionManager.sat -89dBm
param *.connectionManager.sendDirect true
param *.manager.autoShutdown true
param *.manager.host "\"localhost\""
param *.manager.launchConfig "xmldoc(\"map.launchd.xml\")"
param *.manager.margin 25
param *.manager.moduleDisplayString "\"\""
param *.manager.moduleName "\"node\""
param *.manager.moduleType "\"symulacja.veins.nodes.Car\""
param *.manager.port 9999
param *.manager.updateInterval 0.1s
param *.node[*].appl.beaconInterval 1s
param *.node[*].appl.beaconPriority 3
param *.node[*].appl.dataOnSch false
param *.node[*].appl.dataPriority 2
param *.node[*].appl.debug false
param *.node[*].appl.maxOffset 0.005s
param *.node[*].appl.sendBeacons false
param *.node[*].appl.sendData true
param *.node[*].appl.sendVoIP true
param *.node[*].appl.voipInterval 0.030s
param *.node[*].appl.voipLengthBits 2240bits
param *.node[*].appl.voipOnSch true
param *.node[*].appl.voipPriority 3
param *.node[*].applType "\"Sym11p\""
param *.node[*].veinsmobility.x 0
param *.node[*].veinsmobility.y 0
param *.node[*].veinsmobility.z 1.895
param *.node[*].veinsmobilityType "\"symulacja.veins.modules.mobility.traci.TraCIMobility\""
param *.playgroundSizeX 9000m
param *.playgroundSizeY 9000m
param *.playgroundSizeZ 50m
param *.rsu[*].appl.beaconInterval 1s
param *.rsu[*].appl.beaconPriority 3
param *.rsu[*].appl.dataOnSch false
param *.rsu[*].appl.dataPriority 2
param *.rsu[*].appl.debug false
param *.rsu[*].appl.headerLength "256 bit"
param *.rsu[*].appl.maxOffset 0.005s
param *.rsu[*].appl.sendBeacons false
param *.rsu[*].appl.sendData false
param *.rsu[*].appl.sendVoIP false
param *.rsu[*].applType "\"SymRSU11p\""
param *.rsu[0].mobility.x 2160
param *.rsu[0].mobility.y 3100
param *.rsu[0].mobility.z 3
param *.world.use2D false
param *.world.useTorus false

vector 14  SymScenerio.rsu[0].nic.mac1609_4  "Interwały kanałów"  ETV
vector 23  SymScenerio.node[0].veinsmobility  posx  ETV
vector 24  SymScenerio.node[0].veinsmobility  posy  ETV
vector 22  SymScenerio.node[0].nic.mac1609_4  "Interwały kanałów"  ETV
vector 25  SymScenerio.node[0].veinsmobility  speed  ETV
vector 15  SymScenerio.node[0].appl  "TX Packets"  ETV
vector 16  SymScenerio.node[0].appl  "TX Total"  ETV
vector 17  SymScenerio.node[0].appl  Pakietyzacja  ETV
vector 5  SymScenerio.rsu[0].appl  nodeALL:vector  ETV
attr source  nodeALL
attr title  "Opoznienia ALL, vector"
vector 9  SymScenerio.rsu[0].appl  "RX Packet"  ETV
vector 0  SymScenerio.rsu[0].appl  node0:vector  ETV
attr source  node0
attr title  "Opoznienia node0, vector"
vector 26  SymScenerio.node[0].veinsmobility  acceleration  ETV
vector 27  SymScenerio.node[0].veinsmobility  co2emission  ETV
vector 36  SymScenerio.node[1].veinsmobility  posx  ETV
vector 37  SymScenerio.node[1].veinsmobility  posy  ETV
vector 35  SymScenerio.node[1].nic.mac1609_4  "Interwały kanałów"  ETV
vector 38  SymScenerio.node[1].veinsmobility  speed  ETV
vector 39  SymScenerio.node[1].veinsmobility  acceleration  ETV
vector 40  SymScenerio.node[1].veinsmobility  co2emission  ETV
vector 28  SymScenerio.node[1].appl  "TX Packets"  ETV
vector 29  SymScenerio.node[1].appl  "TX Total"  ETV
vector 30  SymScenerio.node[1].appl  Pakietyzacja  ETV
vector 1  SymScenerio.rsu[0].appl  node1:vector  ETV
attr source  node1
attr title  "Opoznienia node1, vector"
vector 49  SymScenerio.node[2].veinsmobility  posx  ETV
vector 50  SymScenerio.node[2].veinsmobility  posy  ETV
vector 48  SymScenerio.node[2].nic.mac1609_4  "Interwały kanałów"  ETV
vector 51  SymScenerio.node[2].veinsmobility  speed  ETV
vector 52  SymScenerio.node[2].veinsmobility  acceleration  ETV
vector 53  SymScenerio.node[2].veinsmobility  co2emission  ETV
vector 41  SymScenerio.node[2].appl  "TX Packets"  ETV
vector 42  SymScenerio.node[2].appl  "TX Total"  ETV
vector 43  SymScenerio.node[2].appl  Pakietyzacja  ETV
vector 2  SymScenerio.rsu[0].appl  node2:vector  ETV
attr source  node2
attr title  "Opoznienia node2, vector"
vector 62  SymScenerio.node[3].veinsmobility  posx  ETV
vector 63  SymScenerio.node[3].veinsmobility  posy  ETV
vector 61  SymScenerio.node[3].nic.mac1609_4  "Interwały kanałów"  ETV
vector 64  SymScenerio.node[3].veinsmobility  speed  ETV
vector 65  SymScenerio.node[3].veinsmobility  acceleration  ETV
vector 66  SymScenerio.node[3].veinsmobility  co2emission  ETV
vector 54  SymScenerio.node[3].appl  "TX Packets"  ETV
vector 55  SymScenerio.node[3].appl  "TX Total"  ETV
vector 56  SymScenerio.node[3].appl  Pakietyzacja  ETV
vector 3  SymScenerio.rsu[0].appl  node3:vector  ETV
attr source  node3
attr title  "Opoznienia node3, vector"
vector 75  SymScenerio.node[4].veinsmobility  posx  ETV
vector 76  SymScenerio.node[4].veinsmobility  posy  ETV
vector 74  SymScenerio.node[4].nic.mac1609_4  "Interwały kanałów"  ETV
vector 77  SymScenerio.node[4].veinsmobility  speed  ETV
vector 78  SymScenerio.node[4].veinsmobility  acceleration  ETV
vector 79  SymScenerio.node[4].veinsmobility  co2emission  ETV
vector 67  SymScenerio.node[4].appl  "TX Packets"  ETV
vector 68  SymScenerio.node[4].appl  "TX Total"  ETV
vector 69  SymScenerio.node[4].appl  Pakietyzacja  ETV
vector 4  SymScenerio.rsu[0].appl  node4:vector  ETV
attr source  node4
attr title  "Opoznienia node4, vector"
17	10	0.233828338161	1.002
17	27	0.263828338161	1.002
17	42	0.293828338161	1.002
17	60	0.323828338161	1.002
17	64	0.353828338161	1.002
17	92	0.383828338161	1.002
17	110	0.413828338161	1.002
17	112	0.443828338161	1.002
17	142	0.473828338161	1.002
17	160	0.503828338161	1.002
17	162	0.533828338161	1.002
17	192	0.563828338161	1.002
17	207	0.593828338161	1.002
17	225	0.623828338161	1.002
17	229	0.653828338161	1.002
17	257	0.683828338161	1.002
17	275	0.713828338161	1.002
17	277	0.743828338161	1.002
17	307	0.773828338161	1.002
17	325	0.803828338161	1.002
17	327	0.833828338161	1.002
17	357	0.863828338161	1.002
17	372	0.893828338161	1.002
17	390	0.923828338161	1.002
17	394	0.953828338161	1.002
17	422	0.983828338161	1.002
17	440	1.013828338161	1.002
17	442	1.043828338161	1.002
17	472	1.073828338161	1.002
17	490	1.103828338161	1.002
17	492	1.133828338161	1.002
17	522	1.163828338161	1.002
17	537	1.193828338161	1.002
17	555	1.223828338161	1.002
17	559	1.253828338161	1.002
17	587	1.283828338161	1.002
17	605	1.313828338161	1.002
17	607	1.343828338161	1.002
17	637	1.373828338161	1.002
17	655	1.403828338161	1.002
17	657	1.433828338161	1.002
17	687	1.463828338161	1.002
17	702	1.493828338161	1.002
17	720	1.523828338161	1.002
17	724	1.553828338161	1.002
17	752	1.583828338161	1.002
17	770	1.613828338161	1.002
17	772	1.643828338161	1.002
17	802	1.673828338161	1.002
17	820	1.703828338161	1.002
17	822	1.733828338161	1.002
17	852	1.763828338161	1.002
17	867	1.793828338161	1.002
17	885	1.823828338161	1.002
17	889	1.853828338161	1.002
17	917	1.883828338161	1.002
17	935	1.913828338161	1.002
17	937	1.943828338161	1.002
17	967	1.973828338161	1.002
17	985	2.003828338161	1.002
17	987	2.033828338161	1.002
17	1017	2.063828338161	1.002
17	1032	2.093828338161	1.002
17	1050	2.123828338161	1.002
17	1054	2.153828338161	1.002
17	1082	2.183828338161	1.002
17	1100	2.213828338161	1.002
17	1102	2.243828338161	1.002
17	1132	2.273828338161	1.002
17	1150	2.303828338161	1.002
17	1152	2.333828338161	1.002
17	1182	2.363828338161	1.002
17	1197	2.393828338161	1.002
17	1215	2.423828338161	1.002
17	1219	2.453828338161	1.002
17	1247	2.483828338161	1.002
17	1265	2.513828338161	1.002
17	1267	2.543828338161	1.002
17	1297	2.573828338161	1.002
17	1315	2.603828338161	1.002
17	1317	2.633828338161	1.002
17	1347	2.663828338161	1.002
17	1362	2.693828338161	1.002
17	1380	2.723828338161	1.002
17	1384	2.753828338161	1.002
17	1412	2.783828338161	1.002
17	1430	2.813828338161	1.002
17	1432	2.843828338161	1.002
17	1462	2.873828338161	1.002
17	1480	2.903828338161	1.002
17	1482	2.933828338161	1.002
17	1512	2.963828338161	1.002
17	1527	2.993828338161	1.002
17	1545	3.023828338161	1.002
17	1549	3.053828338161	1.002
17	1577	3.083828338161	1.002
17	1595	3.113828338161	1.002
17	1597	3.143828338161	1.002
17	1640	3.173828338161	1.002
17	1665	3.203828338161	1.002
17	1667	3.233828338161	1.002
17	1710	3.263828338161	1.002
17	1731	3.293828338161	1.002
17	1756	3.323828338161	1.002
17	1761	3.353828338161	1.002
17	1801	3.383828338161	1.002
17	1826	3.413828338161	1.002
17	1828	3.443828338161	1.002
17	1871	3.473828338161	1.002
17	1896	3.503828338161	1.002
17	1898	3.533828338161	1.002
17	1941	3.563828338161	1.002
17	1962	3.593828338161	1.002
17	1987	3.623828338161	1.002
17	1992	3.653828338161	1.002
17	2032	3.683828338161	1.002
17	2057	3.713828338161	1.002
17	2059	3.743828338161	1.002
17	2123	3.773828338161	1.002
17	2169	3.803828338161	1.002
17	2173	3.833828338161	1.002
17	2249	3.863828338161	1.002
17	2291	3.893828338161	1.002
17	2318	3.923828338161	1.002
17	2325	3.953828338161	1.002
17	2424	3.983828338161	1.002
17	2451	4.013828338161	1.002
17	2455	4.043828338161	1.002
17	2557	4.073828338161	1.002
17	2603	4.103828338161	1.002
17	2607	4.133828338161	1.002
17	2690	4.163828338161	1.002
17	2732	4.193828338161	1.002
17	2759	4.223828338161	1.002
17	2766	4.253828338161	1.002
17	2865	4.283828338161	1.002
17	2892	4.313828338161	1.002
17	2896	4.343828338161	1.002
17	2998	4.373828338161	1.002
17	3044	4.403828338161	1.002
17	3048	4.433828338161	1.002
17	3131	4.463828338161	1.002
17	3173	4.493828338161	1.002
17	3200	4.523828338161	1.002
17	3207	4.553828338161	1.002
17	3306	4.583828338161	1.002
17	3333	4.613828338161	1.002
17	3337	4.643828338161	1.002
17	3439	4.673828338161	1.002
17	3485	4.703828338161	1.002
17	3489	4.733828338161	1.002
17	3572	4.763828338161	1.002
17	3614	4.793828338161	1.002
17	3641	4.823828338161	1.002
17	3648	4.853828338161	1.002
17	3747	4.883828338161	1.002
17	3774	4.913828338161	1.002
17	3778	4.943828338161	1.002
17	3880	4.973828338161	1.002
17	3926	5.003828338161	1.002
17	3930	5.033828338161	1.002
17	4013	5.063828338161	1.002
17	4055	5.093828338161	1.002
17	4082	5.123828338161	1.002
17	4089	5.153828338161	1.002
17	4188	5.183828338161	1.002
17	4215	5.213828338161	1.002
17	4219	5.243828338161	1.002
17	4321	5.273828338161	1.002
17	4367	5.303828338161	1.002
17	4371	5.333828338161	1.002
17	4454	5.363828338161	1.002
17	4496	5.393828338161	1.002
17	4523	5.423828338161	1.002
17	4530	5.453828338161	1.002
17	4629	5.483828338161	1.002
17	4656	5.513828338161	1.002
17	4660	5.543828338161	1.002
17	4762	5.573828338161	1.002
17	4808	5.603828338161	1.002
17	4812	5.633828338161	1.002
17	4895	5.663828338161	1.002
17	4937	5.693828338161	1.002
17	4964	5.723828338161	1.002
17	4971	5.753828338161	1.002
17	5070	5.783828338161	1.002
17	5097	5.813828338161	1.002
17	5101	5.843828338161	1.002
17	5196	5.873828338161	1.002
17	5242	5.903828338161	1.002
17	5246	5.933828338161	1.002
17	5329	5.963828338161	1.002
17	5371	5.993828338161	1.002
17	5398	6.023828338161	1.002
17	5405	6.053828338161	1.002
17	5504	6.083828338161	1.002
17	5531	6.113828338161	1.002
17	5535	6.143828338161	1.002
17	5658	6.173828338161	1.002
17	5717	6.203828338161	1.002
17	5721	6.233828338161	1.002
17	5829	6.263828338161	1.002
17	5883	6.293828338161	1.002
17	5917	6.323828338161	1.002
17	5925	6.353828338161	1.002
17	6054	6.383828338161	1.002
17	6088	6.413828338161	1.002
17	6092	6.443828338161	1.002
17	6225	6.473828338161	1.002
17	6284	6.503828338161	1.002
17	6288	6.533828338161	1.002
17	6396	6.563828338161	1.002
17	6450	6.593828338161	1.002
17	6484	6.623828338161	1.002
17	6492	6.653828338161	1.002
17	6648	6.683828338161	1.002
17	6684	6.713828338161	1.002
17	6690	6.743828338161	1.002
17	6890	6.773828338161	1.002
17	6976	6.803828338161	1.002
17	6982	6.833828338161	1.002
17	7132	6.863828338161	1.002
17	7213	6.893828338161	1.002
17	7249	6.923828338161	1.002
17	7259	6.953828338161	1.002
17	7465	6.983828338161	1.002
17	7501	7.013828338161	1.002
17	7507	7.043828338161	1.002
17	7707	7.073828338161	1.002
17	7793	7.103828338161	1.002
17	7799	7.133828338161	1.002
17	7959	7.163828338161	1.002
17	8040	7.193828338161	1.002
17	8076	7.223828338161	1.002
17	8086	7.253828338161	1.002
17	8292	7.283828338161	1.002
17	8328	7.313828338161	1.002
17	8334	7.343828338161	1.002
17	8544	7.373828338161	1.002
17	8630	7.403828338161	1.002
17	8636	7.433828338161	1.002
17	8786	7.463828338161	1.002
17	8867	7.493828338161	1.002
17	8903	7.523828338161	1.002
17	8913	7.553828338161	1.002
17	9119	7.583828338161	1.002
17	9155	7.613828338161	1.002
17	9161	7.643828338161	1.002
17	9371	7.673828338161	1.002
17	9457	7.703828338161	1.002
17	9463	7.733828338161	1.002
17	9623	7.763828338161	1.002
17	9704	7.793828338161	1.002
17	9740	7.823828338161	1.002
17	9750	7.853828338161	1.002
17	9956	7.883828338161	1.002
17	9992	7.913828338161	1.002
17	9998	7.943828338161	1.002
17	10198	7.973828338161	1.002
17	10284	8.003828338161	1.002
17	10290	8.033828338161	1.002
17	10440	8.063828338161	1.002
17	10521	8.093828338161	1.002
17	10557	8.123828338161	1.002
17	10567	8.153828338161	1.002
17	10763	8.183828338161	1.002
17	10799	8.213828338161	1.002
17	10805	8.243828338161	1.002
17	11005	8.273828338161	1.002
17	11091	8.303828338161	1.002
17	11097	8.333828338161	1.002
17	11257	8.363828338161	1.002
17	11338	8.393828338161	1.002
17	11374	8.423828338161	1.002
17	11384	8.453828338161	1.002
17	11580	8.483828338161	1.002
17	11616	8.513828338161	1.002
17	11622	8.543828338161	1.002
17	11812	8.573828338161	1.002
17	11898	8.603828338161	1.002
17	11904	8.633828338161	1.002
17	12054	8.663828338161	1.002
17	12135	8.693828338161	1.002
17	12171	8.723828338161	1.002
17	12181	8.753828338161	1.002
17	12377	8.783828338161	1.002
17	12413	8.813828338161	1.002
17	12419	8.843828338161	1.002
17	12629	8.873828338161	1.002
17	12715	8.903828338161	1.002
17	12721	8.933828338161	1.002
17	12871	8.963828338161	1.002
17	12952	8.993828338161	1.002
17	12988	9.023828338161	1.002
17	12998	9.053828338161	1.002
17	13194	9.083828338161	1.002
17	13230	9.113828338161	1.002
17	13236	9.143828338161	1.002
17	13495	9.173828338161	1.002
17	13600	9.203828338161	1.002
17	13606	9.233828338161	1.002
17	13790	9.263828338161	1.002
17	13889	9.293828338161	1.002
17	13932	9.323828338161	1.002
17	13943	9.353828338161	1.002
17	14197	9.383828338161	1.002
17	14240	9.413828338161	1.002
17	14246	9.443828338161	1.002
17	14479	9.473828338161	1.002
17	14584	9.503828338161	1.002
17	14590	9.533828338161	1.002
17	14761	9.563828338161	1.002
17	14860	9.593828338161	1.002
17	14903	9.623828338161	1.002
17	14914	9.653828338161	1.002
17	15155	9.683828338161	1.002
17	15198	9.713828338161	1.002
17	15204	9.743828338161	1.002
17	15470	9.773828338161	1.002
17	15608	9.803828338161	1.002
17	15616	9.833828338161	1.002
17	15864	9.863828338161	1.002
17	15996	9.893828338161	1.002
17	16041	9.923828338161	1.002
17	16054	9.953828338161	1.002
17	16390	9.983828338161	1.002
17	16435	10.013828338161	1.002
17	16443	10.043828338161	1.002
17	16771	10.073828338161	1.002
17	16909	10.103828338161	1.002
17	16917	10.133828338161	1.002
17	17165	10.163828338161	1.002
17	17297	10.193828338161	1.002
17	17342	10.223828338161	1.002
17	17355	10.253828338161	1.002
17	17704	10.283828338161	1.002
17	17749	10.313828338161	1.002
17	17757	10.343828338161	1.002
17	18098	10.373828338161	1.002
17	18236	10.403828338161	1.002
17	18244	10.433828338161	1.002
17	18479	10.463828338161	1.002
17	18611	10.493828338161	1.002
17	18656	10.523828338161	1.002
17	18669	10.553828338161	1.002
17	18996	10.583828338161	1.002
17	19041	10.613828338161	1.002
17	19049	10.643828338161	1.002
17	19381	10.673828338161	1.002
17	19519	10.703828338161	1.002
17	19527	10.733828338161	1.002
17	19762	10.763828338161	1.002
17	19894	10.793828338161	1.002
17	19939	10.823828338161	1.002
17	19952	10.853828338161	1.002
17	20275	10.883828338161	1.002
17	20320	10.913828338161	1.002
17	20328	10.943828338161	1.002
17	20656	10.973828338161	1.002
17	20794	11.003828338161	1.002
17	20802	11.033828338161	1.002
17	21050	11.063828338161	1.002
17	21182	11.093828338161	1.002
17	21227	11.123828338161	1.002
17	21240	11.153828338161	1.002
17	21554	11.183828338161	1.002
17	21599	11.213828338161	1.002
17	21607	11.243828338161	1.002
17	21926	11.273828338161	1.002
17	22064	11.303828338161	1.002
17	22072	11.333828338161	1.002
17	22320	11.363828338161	1.002
17	22452	11.393828338161	1.002
17	22497	11.423828338161	1.002
17	22510	11.453828338161	1.002
17	22846	11.483828338161	1.002
17	22891	11.513828338161	1.002
17	22899	11.543828338161	1.002
17	23227	11.573828338161	1.002
17	23365	11.603828338161	1.002
17	23373	11.633828338161	1.002
17	23634	11.663828338161	1.002
17	23766	11.693828338161	1.002
17	23811	11.723828338161	1.002
17	23824	11.753828338161	1.002
17	24160	11.783828338161	1.002
17	24205	11.813828338161	1.002
17	24213	11.843828338161	1.002
17	24545	11.873828338161	1.002
17	24683	11.903828338161	1.002
17	24691	11.933828338161	1.002
17	24939	11.963828338161	1.002
17	25071	11.993828338161	1.002
17	25116	12.023828338161	1.002
17	25129	12.053828338161	1.002
17	25456	12.083828338161	1.002
17	25501	12.113828338161	1.002
17	25509	12.143828338161	1.002
17	25930	12.173828338161	1.002
17	26093	12.203828338161	1.002
17	26101	12.233828338161	1.002
17	26384	12.263828338161	1.002
17	26540	12.293828338161	1.002
17	26592	12.323828338161	1.002
17	26606	12.353828338161	1.002
17	27005	12.383828338161	1.002
17	27057	12.413828338161	1.002
17	27065	12.443828338161	1.002
17	27454	12.473828338161	1.002
17	27617	12.503828338161	1.002
17	27625	12.533828338161	1.002
17	27919	12.563828338161	1.002
17	28075	12.593828338161	1.002
17	28127	12.623828338161	1.002
17	28141	12.653828338161	1.002
17	28541	12.683828338161	1.002
17	28593	12.713828338161	1.002
17	28601	12.743828338161	1.002
17	28991	12.773828338161	1.002
17	29154	12.803828338161	1.002
17	29162	12.833828338161	1.002
17	29456	12.863828338161	1.002
17	29612	12.893828338161	1.002
17	29664	12.923828338161	1.002
17	29678	12.953828338161	1.002
17	30061	12.983828338161	1.002
17	30113	13.013828338161	1.002
17	30121	13.043828338161	1.002
17	30565	13.073828338161	1.002
17	30767	13.103828338161	1.002
17	30777	13.133828338161	1.002
17	31136	13.163828338161	1.002
17	31331	13.193828338161	1.002
17	31385	13.223828338161	1.002
17	31401	13.253828338161	1.002
17	31881	13.283828338161	1.002
17	31972	13.313828338161	1.002
17	31982	13.343828338161	1.002
17	32436	13.373828338161	1.002
17	32638	13.403828338161	1.002
17	32648	13.433828338161	1.002
17	32992	13.463828338161	1.002
17	33187	13.493828338161	1.002
17	33241	13.523828338161	1.002
17	33257	13.553828338161	1.002
17	33742	13.583828338161	1.002
17	33833	13.613828338161	1.002
17	33843	13.643828338161	1.002
17	34297	13.673828338161	1.002
17	34499	13.703828338161	1.002
17	34509	13.733828338161	1.002
17	34847	13.763828338161	1.002
17	35042	13.793828338161	1.002
17	35096	13.823828338161	1.002
17	35112	13.853828338161	1.002
17	35613	13.883828338161	1.002
17	35704	13.913828338161	1.002
17	35714	13.943828338161	1.002
17	36168	13.973828338161	1.002
17	36370	14.003828338161	1.002
17	36380	14.033828338161	1.002
17	36718	14.063828338161	1.002
17	36913	14.093828338161	1.002
17	36967	14.123828338161	1.002
17	36983	14.153828338161	1.002
17	37468	14.183828338161	1.002
17	37559	14.213828338161	1.002
17	37569	14.243828338161	1.002
17	38007	14.273828338161	1.002
17	38209	14.303828338161	1.002
17	38219	14.333828338161	1.002
17	38589	14.363828338161	1.002
17	38784	14.393828338161	1.002
17	38838	14.423828338161	1.002
17	38854	14.453828338161	1.002
17	39355	14.483828338161	1.002
17	39446	14.513828338161	1.002
17	39456	14.543828338161	1.002
17	39910	14.573828338161	1.002
17	40112	14.603828338161	1.002
17	40122	14.633828338161	1.002
17	40449	14.663828338161	1.002
17	40644	14.693828338161	1.002
17	40698	14.723828338161	1.002
17	40714	14.753828338161	1.002
17	41210	14.783828338161	1.002
17	41301	14.813828338161	1.002
17	41311	14.843828338161	1.002
17	41776	14.873828338161	1.002
17	41978	14.903828338161	1.002
17	41988	14.933828338161	1.002
17	42326	14.963828338161	1.002
17	42521	14.993828338161	1.002
17	42575	15.023828338161	1.002
17	42591	15.053828338161	1.002
17	43071	15.083828338161	1.002
17	43162	15.113828338161	1.002
17	43172	15.143828338161	1.002
17	43637	15.173828338161	1.002
17	43839	15.203828338161	1.002
17	43849	15.233828338161	1.002
17	44219	15.263828338161	1.002
17	44414	15.293828338161	1.002
17	44468	15.323828338161	1.002
17	44484	15.353828338161	1.002
17	44980	15.383828338161	1.002
17	45071	15.413828338161	1.002
17	45081	15.443828338161	1.002
17	45546	15.473828338161	1.002
17	45748	15.503828338161	1.002
17	45758	15.533828338161	1.002
17	46101	15.563828338161	1.002
17	46296	15.593828338161	1.002
17	46350	15.623828338161	1.002
17	46366	15.653828338161	1.002
17	46846	15.683828338161	1.002
17	46937	15.713828338161	1.002
17	46947	15.743828338161	1.002
17	47412	15.773828338161	1.002
17	47614	15.803828338161	1.002
17	47624	15.833828338161	1.002
17	47967	15.863828338161	1.002
17	48162	15.893828338161	1.002
17	48216	15.923828338161	1.002
17	48232	15.953828338161	1.002
17	48706	15.983828338161	1.002
17	48797	16.013828338161	1.002
17	48807	16.043828338161	1.002
17	49256	16.073828338161	1.002
17	49458	16.103828338161	1.002
17	49468	16.133828338161	1.002
17	49806	16.163828338161	1.002
17	50001	16.193828338161	1.002
17	50055	16.223828338161	1.002
17	50071	16.253828338161	1.002
17	50551	16.283828338161	1.002
17	50642	16.313828338161	1.002
17	50652	16.343828338161	1.002
17	51117	16.373828338161	1.002
17	51319	16.403828338161	1.002
17	51329	16.433828338161	1.002
17	51672	16.463828338161	1.002
17	51867	16.493828338161	1.002
17	51921	16.523828338161	1.002
17	51937	16.553828338161	1.002
17	52422	16.583828338161	1.002
17	52513	16.613828338161	1.002
17	52523	16.643828338161	1.002
17	52977	16.673828338161	1.002
17	53179	16.703828338161	1.002
17	53189	16.733828338161	1.002
17	53548	16.763828338161	1.002
17	53743	16.793828338161	1.002
17	53797	16.823828338161	1.002
17	53813	16.853828338161	1.002
17	54287	16.883828338161	1.002
17	54378	16.913828338161	1.002
17	54388	16.943828338161	1.002
17	54826	16.973828338161	1.002
17	55028	17.003828338161	1.002
17	55038	17.033828338161	1.002
17	55381	17.063828338161	1.002
17	55576	17.093828338161	1.002
17	55630	17.123828338161	1.002
17	55646	17.153828338161	1.002
17	56142	17.183828338161	1.002
17	56233	17.213828338161	1.002
17	56243	17.243828338161	1.002
17	56692	17.273828338161	1.002
17	56894	17.303828338161	1.002
17	56904	17.333828338161	1.002
17	57274	17.363828338161	1.002
17	57469	17.393828338161	1.002
17	57523	17.423828338161	1.002
17	57539	17.453828338161	1.002
17	58035	17.483828338161	1.002
17	58126	17.513828338161	1.002
17	58136	17.543828338161	1.002
17	58590	17.573828338161	1.002
17	58792	17.603828338161	1.002
17	58802	17.633828338161	1.002
17	59156	17.663828338161	1.002
17	59351	17.693828338161	1.002
17	59405	17.723828338161	1.002
17	59421	17.753828338161	1.002
17	59922	17.783828338161	1.002
17	60013	17.813828338161	1.002
17	60023	17.843828338161	1.002
17	60488	17.873828338161	1.002
17	60690	17.903828338161	1.002
17	60700	17.933828338161	1.002
17	61038	17.963828338161	1.002
17	61233	17.993828338161	1.002
17	61287	18.023828338161	1.002
17	61303	18.053828338161	1.002
17	61772	18.083828338161	1.002
17	61863	18.113828338161	1.002
17	61873	18.143828338161	1.002
17	62322	18.173828338161	1.002
17	62524	18.203828338161	1.002
17	62534	18.233828338161	1.002
17	62877	18.263828338161	1.002
17	63072	18.293828338161	1.002
17	63126	18.323828338161	1.002
17	63142	18.353828338161	1.002
17	63638	18.383828338161	1.002
17	63729	18.413828338161	1.002
17	63739	18.443828338161	1.002
17	64188	18.473828338161	1.002
17	64390	18.503828338161	1.002
17	64400	18.533828338161	1.002
17	64727	18.563828338161	1.002
17	64922	18.593828338161	1.002
17	64976	18.623828338161	1.002
17	64992	18.653828338161	1.002
17	65488	18.683828338161	1.002
17	65579	18.713828338161	1.002
17	65589	18.743828338161	1.002
17	66054	18.773828338161	1.002
17	66256	18.803828338161	1.002
17	66266	18.833828338161	1.002
17	66620	18.863828338161	1.002
17	66815	18.893828338161	1.002
17	66869	18.923828338161	1.002
17	66885	18.953828338161	1.002
17	67381	18.983828338161	1.002
17	67472	19.013828338161	1.002
17	67482	19.043828338161	1.002
17	67925	19.073828338161	1.002
17	68127	19.103828338161	1.002
17	68137	19.133828338161	1.002
17	68475	19.163828338161	1.002
17	68670	19.193828338161	1.002
17	68724	19.223828338161	1.002
17	68740	19.253828338161	1.002
17	69236	19.283828338161	1.002
17	69327	19.313828338161	1.002
17	69337	19.343828338161	1.002
17	69802	19.373828338161	1.002
17	70004	19.403828338161	1.002
17	70014	19.433828338161	1.002
17	70352	19.463828338161	1.002
17	70547	19.493828338161	1.002
17	70601	19.523828338161	1.002
17	70617	19.553828338161	1.002
17	71097	19.583828338161	1.002
17	71188	19.613828338161	1.002
17	71198	19.643828338161	1.002
17	71663	19.673828338161	1.002
17	71865	19.703828338161	1.002
17	71875	19.733828338161	1.002
17	72213	19.763828338161	1.002
17	72408	19.793828338161	1.002
17	72462	19.823828338161	1.002
17	72478	19.853828338161	1.002
17	72974	19.883828338161	1.002
17	73065	19.913828338161	1.002
17	73075	19.943828338161	1.002
17	73540	19.973828338161	1.002
17	73742	20.003828338161	1.002
17	73752	20.033828338161	1.002
17	74095	20.063828338161	1.002
17	74290	20.093828338161	1.002
17	74344	20.123828338161	1.002
17	74360	20.153828338161	1.002
17	74840	20.183828338161	1.002
17	74931	20.213828338161	1.002
17	74941	20.243828338161	1.002
17	75395	20.273828338161	1.002
17	75597	20.303828338161	1.002
17	75607	20.333828338161	1.002
17	75950	20.363828338161	1.002
17	76145	20.393828338161	1.002
17	76199	20.423828338161	1.002
17	76215	20.453828338161	1.002
17	76700	20.483828338161	1.002
17	76791	20.513828338161	1.002
17	76801	20.543828338161	1.002
17	77239	20.573828338161	1.002
17	77441	20.603828338161	1.002
17	77451	20.633828338161	1.002
17	77794	20.663828338161	1.002
17	77989	20.693828338161	1.002
17	78043	20.723828338161	1.002
17	78059	20.753828338161	1.002
17	78544	20.783828338161	1.002
17	78635	20.813828338161	1.002
17	78645	20.843828338161	1.002
17	79083	20.873828338161	1.002
17	79285	20.903828338161	1.002
17	79295	20.933828338161	1.002
17	79649	20.963828338161	1.002
17	79844	20.993828338161	1.002
17	79898	21.023828338161	1.002
17	79914	21.053828338161	1.002
17	80399	21.083828338161	1.002
17	80490	21.113828338161	1.002
17	80500	21.143828338161	1.002
17	80954	21.173828338161	1.002
17	81156	21.203828338161	1.002
17	81166	21.233828338161	1.002
17	81536	21.263828338161	1.002
17	81731	21.293828338161	1.002
17	81785	21.323828338161	1.002
17	81801	21.353828338161	1.002
17	82281	21.383828338161	1.002
17	82372	21.413828338161	1.002
17	82382	21.443828338161	1.002
17	82836	21.473828338161	1.002
17	83038	21.503828338161	1.002
17	83048	21.533828338161	1.002
17	83386	21.563828338161	1.002
17	83581	21.593828338161	1.002
17	83635	21.623828338161	1.002
17	83651	21.653828338161	1.002
17	84136	21.683828338161	1.002
17	84227	21.713828338161	1.002
17	84237	21.743828338161	1.002
17	84702	21.773828338161	1.002
17	84904	21.803828338161	1.002
17	84914	21.833828338161	1.002
17	85241	21.863828338161	1.002
17	85436	21.893828338161	1.002
17	85490	21.923828338161	1.002
17	85506	21.953828338161	1.002
17	85970	21.983828338161	1.002
17	86061	22.013828338161	1.002
17	86071	22.043828338161	1.002
17	86536	22.073828338161	1.002
17	86738	22.103828338161	1.002
17	86748	22.133828338161	1.002
17	87075	22.163828338161	1.002
17	87270	22.193828338161	1.002
17	87324	22.223828338161	1.002
17	87340	22.253828338161	1.002
17	87793	22.283828338161	1.002
17	87884	22.313828338161	1.002
17	87894	22.343828338161	1.002
17	88316	22.373828338161	1.002
17	88518	22.403828338161	1.002
17	88528	22.433828338161	1.002
17	88866	22.463828338161	1.002
17	89061	22.493828338161	1.002
17	89115	22.523828338161	1.002
17	89131	22.553828338161	1.002
17	89600	22.583828338161	1.002
17	89691	22.613828338161	1.002
17	89701	22.643828338161	1.002
17	90144	22.673828338161	1.002
17	90346	22.703828338161	1.002
17	90356	22.733828338161	1.002
17	90683	22.763828338161	1.002
17	90878	22.793828338161	1.002
17	90932	22.823828338161	1.002
17	90948	22.853828338161	1.002
17	91433	22.883828338161	1.002
17	91524	22.913828338161	1.002
17	91534	22.943828338161	1.002
17	91999	22.973828338161	1.002
17	92201	23.003828338161	1.002
17	92211	23.033828338161	1.002
17	92565	23.063828338161	1.002
17	92760	23.093828338161	1.002
17	92814	23.123828338161	1.002
17	92830	23.153828338161	1.002
17	93315	23.183828338161	1.002
17	93406	23.213828338161	1.002
17	93416	23.243828338161	1.002
17	93870	23.273828338161	1.002
17	94072	23.303828338161	1.002
17	94082	23.333828338161	1.002
17	94436	23.363828338161	1.002
17	94631	23.393828338161	1.002
17	94685	23.423828338161	1.002
17	94701	23.453828338161	1.002
17	95191	23.483828338161	1.002
17	95282	23.513828338161	1.002
17	95292	23.543828338161	1.002
17	95735	23.573828338161	1.002
17	95937	23.603828338161	1.002
17	95947	23.633828338161	1.002
17	96301	23.663828338161	1.002
17	96496	23.693828338161	1.002
17	96550	23.723828338161	1.002
17	96566	23.753828338161	1.002
17	97051	23.783828338161	1.002
17	97142	23.813828338161	1.002
17	97152	23.843828338161	1.002
17	97606	23.873828338161	1.002
17	97808	23.903828338161	1.002
17	97818	23.933828338161	1.002
17	98161	23.963828338161	1.002
17	98356	23.993828338161	1.002
17	98410	24.023828338161	1.002
17	98426	24.053828338161	1.002
17	98927	24.083828338161	1.002
17	99018	24.113828338161	1.002
17	99028	24.143828338161	1.002
17	99493	24.173828338161	1.002
17	99695	24.203828338161	1.002
17	99705	24.233828338161	1.002
17	100075	24.263828338161	1.002
17	100270	24.293828338161	1.002
17	100324	24.323828338161	1.002
17	100340	24.353828338161	1.002
17	100809	24.383828338161	1.002
17	100900	24.413828338161	1.002
17	100910	24.443828338161	1.002
17	101348	24.473828338161	1.002
17	101550	24.503828338161	1.002
17	101560	24.533828338161	1.002
17	101892	24.563828338161	1.002
17	102087	24.593828338161	1.002
17	102141	24.623828338161	1.002
17	102157	24.653828338161	1.002
17	102642	24.683828338161	1.002
17	102733	24.713828338161	1.002
17	102743	24.743828338161	1.002
17	103208	24.773828338161	1.002
17	103410	24.803828338161	1.002
17	103420	24.833828338161	1.002
17	103774	24.863828338161	1.002
17	103969	24.893828338161	1.002
17	104023	24.923828338161	1.002
17	104039	24.953828338161	1.002
17	104535	24.983828338161	1.002
17	104626	25.013828338161	1.002
17	104636	25.043828338161	1.002
17	105085	25.073828338161	1.002
17	105287	25.103828338161	1.002
17	105297	25.133828338161	1.002
17	105651	25.163828338161	1.002
17	105846	25.193828338161	1.002
17	105900	25.223828338161	1.002
17	105916	25.253828338161	1.002
17	106396	25.283828338161	1.002
17	106487	25.313828338161	1.002
17	106497	25.343828338161	1.002
17	106978	25.373828338161	1.002
17	107180	25.403828338161	1.002
17	107190	25.433828338161	1.002
17	107544	25.463828338161	1.002
17	107739	25.493828338161	1.002
17	107793	25.523828338161	1.002
17	107809	25.553828338161	1.002
17	108321	25.583828338161	1.002
17	108412	25.613828338161	1.002
17	108422	25.643828338161	1.002
17	108887	25.673828338161	1.002
17	109089	25.703828338161	1.002
17	109099	25.733828338161	1.002
17	109437	25.763828338161	1.002
17	109632	25.793828338161	1.002
17	109686	25.823828338161	1.002
17	109702	25.853828338161	1.002
17	110187	25.883828338161	1.002
17	110278	25.913828338161	1.002
17	110288	25.943828338161	1.002
17	110742	25.973828338161	1.002
17	110944	26.003828338161	1.002
17	110954	26.033828338161	1.002
17	111308	26.063828338161	1.002
17	111503	26.093828338161	1.002
17	111557	26.123828338161	1.002
17	111573	26.153828338161	1.002
17	112053	26.183828338161	1.002
17	112144	26.213828338161	1.002
17	112154	26.243828338161	1.002
17	112608	26.273828338161	1.002
17	112810	26.303828338161	1.002
17	112820	26.333828338161	1.002
17	113179	26.363828338161	1.002
17	113374	26.393828338161	1.002
17	113428	26.423828338161	1.002
17	113444	26.453828338161	1.002
17	113940	26.483828338161	1.002
17	114031	26.513828338161	1.002
17	114041	26.543828338161	1.002
17	114479	26.573828338161	1.002
17	114681	26.603828338161	1.002
17	114691	26.633828338161	1.002
17	115045	26.663828338161	1.002
17	115240	26.693828338161	1.002
17	115294	26.723828338161	1.002
17	115310	26.753828338161	1.002
17	115790	26.783828338161	1.002
17	115881	26.813828338161	1.002
17	115891	26.843828338161	1.002
17	116329	26.873828338161	1.002
17	116531	26.903828338161	1.002
17	116541	26.933828338161	1.002
17	116884	26.963828338161	1.002
17	117079	26.993828338161	1.002
17	117133	27.023828338161	1.002
17	117149	27.053828338161	1.002
17	117645	27.083828338161	1.002
17	117736	27.113828338161	1.002
17	117746	27.143828338161	1.002
17	118211	27.173828338161	1.002
17	118413	27.203828338161	1.002
17	118423	27.233828338161	1.002
17	118761	27.263828338161	1.002
17	118956	27.293828338161	1.002
17	119010	27.323828338161	1.002
17	119026	27.353828338161	1.002
17	119495	27.383828338161	1.002
17	119586	27.413828338161	1.002
17	119596	27.443828338161	1.002
17	120050	27.473828338161	1.002
17	120252	27.503828338161	1.002
17	120262	27.533828338161	1.002
17	120605	27.563828338161	1.002
17	120800	27.593828338161	1.002
17	120854	27.623828338161	1.002
17	120870	27.653828338161	1.002
17	121355	27.683828338161	1.002
17	121446	27.713828338161	1.002
17	121456	27.743828338161	1.002
17	121926	27.773828338161	1.002
17	122128	27.803828338161	1.002
17	122138	27.833828338161	1.002
17	122470	27.863828338161	1.002
17	122665	27.893828338161	1.002
17	122719	27.923828338161	1.002
17	122735	27.953828338161	1.002
17	123215	27.983828338161	1.002
17	123306	28.013828338161	1.002
17	123316	28.043828338161	1.002
17	123754	28.073828338161	1.002
17	123956	28.103828338161	1.002
17	123966	28.133828338161	1.002
17	124320	28.163828338161	1.002
17	124515	28.193828338161	1.002
17	124569	28.223828338161	1.002
17	124585	28.253828338161	1.002
17	125054	28.283828338161	1.002
17	125145	28.313828338161	1.002
17	125155	28.343828338161	1.002
17	125620	28.373828338161	1.002
17	125822	28.403828338161	1.002
17	125832	28.433828338161	1.002
17	126191	28.463828338161	1.002
17	126386	28.493828338161	1.002
17	126440	28.523828338161	1.002
17	126456	28.553828338161	1.002
17	126952	28.583828338161	1.002
17	127043	28.613828338161	1.002
17	127053	28.643828338161	1.002
17	127502	28.673828338161	1.002
17	127704	28.703828338161	1.002
17	127714	28.733828338161	1.002
17	128068	28.763828338161	1.002
17	128263	28.793828338161	1.002
17	128317	28.823828338161	1.002
17	128333	28.853828338161	1.002
17	128797	28.883828338161	1.002
17	128888	28.913828338161	1.002
17	128898	28.943828338161	1.002
17	129347	28.973828338161	1.002
17	129549	29.003828338161	1.002
17	129559	29.033828338161	1.002
17	129881	29.063828338161	1.002
17	130076	29.093828338161	1.002
17	130130	29.123828338161	1.002
17	130146	29.153828338161	1.002
17	130631	29.183828338161	1.002
17	130722	29.213828338161	1.002
17	130732	29.243828338161	1.002
17	131186	29.273828338161	1.002
17	131388	29.303828338161	1.002
17	131398	29.333828338161	1.002
17	131752	29.363828338161	1.002
17	131947	29.393828338161	1.002
17	132001	29.423828338161	1.002
17	132017	29.453828338161	1.002
17	132513	29.483828338161	1.002
17	132604	29.513828338161	1.002
17	132614	29.543828338161	1.002
17	133068	29.573828338161	1.002
17	133270	29.603828338161	1.002
17	133280	29.633828338161	1.002
17	133618	29.663828338161	1.002
17	133813	29.693828338161	1.002
17	133867	29.723828338161	1.002
17	133883	29.753828338161	1.002
17	134384	29.783828338161	1.002
17	134475	29.813828338161	1.002
17	134485	29.843828338161	1.002
17	134939	29.873828338161	1.002
17	135141	29.903828338161	1.002
17	135151	29.933828338161	1.002
17	135489	29.963828338161	1.002
17	135684	29.993828338161	1.002
17	135738	30.023828338161	1.002
17	135754	30.053828338161	1.002
17	136239	30.083828338161	1.002
17	136330	30.113828338161	1.002
17	136340	30.143828338161	1.002
17	136821	30.173828338161	1.002
17	137023	30.203828338161	1.002
17	137033	30.233828338161	1.002
17	137344	30.263828338161	1.002
17	137539	30.293828338161	1.002
17	137593	30.323828338161	1.002
17	137609	30.353828338161	1.002
17	138094	30.383828338161	1.002
17	138185	30.413828338161	1.002
17	138195	30.443828338161	1.002
17	138660	30.473828338161	1.002
17	138862	30.503828338161	1.002
17	138872	30.533828338161	1.002
17	139226	30.563828338161	1.002
17	139421	30.593828338161	1.002
17	139475	30.623828338161	1.002
17	139491	30.653828338161	1.002
17	139987	30.683828338161	1.002
17	140078	30.713828338161	1.002
17	140088	30.743828338161	1.002
17	140542	30.773828338161	1.002
17	140744	30.803828338161	1.002
17	140754	30.833828338161	1.002
17	141097	30.863828338161	1.002
17	141292	30.893828338161	1.002
17	141346	30.923828338161	1.002
17	141362	30.953828338161	1.002
17	141858	30.983828338161	1.002
17	141949	31.013828338161	1.002
17	141959	31.043828338161	1.002
17	142424	31.073828338161	1.002
17	142626	31.103828338161	1.002
17	142636	31.133828338161	1.002
17	142974	31.163828338161	1.002
17	143169	31.193828338161	1.002
17	143223	31.223828338161	1.002
17	143239	31.253828338161	1.002
17	143751	31.283828338161	1.002
17	143842	31.313828338161	1.002
17	143852	31.343828338161	1.002
17	144301	31.373828338161	1.002
17	144503	31.403828338161	1.002
17	144513	31.433828338161	1.002
17	144856	31.463828338161	1.002
17	145051	31.493828338161	1.002
17	145105	31.523828338161	1.002
17	145121	31.553828338161	1.002
17	145601	31.583828338161	1.002
17	145692	31.613828338161	1.002
17	145702	31.643828338161	1.002
17	146151	31.673828338161	1.002
17	146353	31.703828338161	1.002
17	146363	31.733828338161	1.002
17	146717	31.763828338161	1.002
17	146912	31.793828338161	1.002
17	146966	31.823828338161	1.002
17	146982	31.853828338161	1.002
17	147467	31.883828338161	1.002
17	147558	31.913828338161	1.002
17	147568	31.943828338161	1.002
17	148033	31.973828338161	1.002
17	148235	32.003828338161	1.002
17	148245	32.033828338161	1.002
17	148588	32.063828338161	1.002
17	148783	32.093828338161	1.002
17	148837	32.123828338161	1.002
17	148853	32.153828338161	1.002
17	149349	32.183828338161	1.002
17	149440	32.213828338161	1.002
17	149450	32.243828338161	1.002
17	149893	32.273828338161	1.002
17	150095	32.303828338161	1.002
17	150105	32.333828338161	1.002
17	150437	32.363828338161	1.002
17	150632	32.393828338161	1.002
17	150686	32.423828338161	1.002
17	150702	32.453828338161	1.002
17	151182	32.483828338161	1.002
17	151273	32.513828338161	1.002
17	151283	32.543828338161	1.002
17	151726	32.573828338161	1.002
17	151928	32.603828338161	1.002
17	151938	32.633828338161	1.002
17	152281	32.663828338161	1.002
17	152476	32.693828338161	1.002
17	152530	32.723828338161	1.002
17	152546	32.753828338161	1.002
17	153031	32.783828338161	1.002
17	153122	32.813828338161	1.002
17	153132	32.843828338161	1.002
17	153586	32.873828338161	1.002
17	153788	32.903828338161	1.002
17	153798	32.933828338161	1.002
17	154125	32.963828338161	1.002
17	154320	32.993828338161	1.002
17	154374	33.023828338161	1.002
17	154390	33.053828338161	1.002
17	154891	33.083828338161	1.002
17	154982	33.113828338161	1.002
17	154992	33.143828338161	1.002
17	155457	33.173828338161	1.002
17	155659	33.203828338161	1.002
17	155669	33.233828338161	1.002
17	156012	33.263828338161	1.002
17	156207	33.293828338161	1.002
17	156261	33.323828338161	1.002
17	156277	33.353828338161	1.002
17	156762	33.383828338161	1.002
17	156853	33.413828338161	1.002
17	156863	33.443828338161	1.002
17	157328	33.473828338161	1.002
17	157530	33.503828338161	1.002
17	157540	33.533828338161	1.002
17	157894	33.563828338161	1.002
17	158089	33.593828338161	1.002
17	158143	33.623828338161	1.002
17	158159	33.653828338161	1.002
17	158655	33.683828338161	1.002
17	158746	33.713828338161	1.002
17	158756	33.743828338161	1.002
17	159221	33.773828338161	1.002
17	159423	33.803828338161	1.002
17	159433	33.833828338161	1.002
17	159776	33.863828338161	1.002
17	159971	33.893828338161	1.002
17	160025	33.923828338161	1.002
17	160041	33.953828338161	1.002
17	160526	33.983828338161	1.002
17	160617	34.013828338161	1.002
17	160627	34.043828338161	1.002
17	161065	34.073828338161	1.002
17	161267	34.103828338161	1.002
17	161277	34.133828338161	1.002
17	161620	34.163828338161	1.002
17	161815	34.193828338161	1.002
17	161869	34.223828338161	1.002
17	161885	34.253828338161	1.002
17	162359	34.283828338161	1.002
17	162450	34.313828338161	1.002
17	162460	34.343828338161	1.002
17	162903	34.373828338161	1.002
17	163105	34.403828338161	1.002
17	163115	34.433828338161	1.002
17	163442	34.463828338161	1.002
17	163637	34.493828338161	1.002
17	163691	34.523828338161	1.002
17	163707	34.553828338161	1.002
17	164187	34.583828338161	1.002
17	164278	34.613828338161	1.002
17	164288	34.643828338161	1.002
17	164737	34.673828338161	1.002
17	164939	34.703828338161	1.002
17	164949	34.733828338161	1.002
17	165292	34.763828338161	1.002
17	165487	34.793828338161	1.002
17	165541	34.823828338161	1.002
17	165557	34.853828338161	1.002
17	166053	34.883828338161	1.002
17	166144	34.913828338161	1.002
17	166154	34.943828338161	1.002
17	166608	34.973828338161	1.002
17	166810	35.003828338161	1.002
17	166820	35.033828338161	1.002
17	167158	35.063828338161	1.002
17	167353	35.093828338161	1.002
17	167407	35.123828338161	1.002
17	167423	35.153828338161	1.002
17	167908	35.183828338161	1.002
17	167999	35.213828338161	1.002
17	168009	35.243828338161	1.002
17	168458	35.273828338161	1.002
17	168660	35.303828338161	1.002
17	168670	35.333828338161	1.002
17	169024	35.363828338161	1.002
17	169219	35.393828338161	1.002
17	169273	35.423828338161	1.002
17	169289	35.453828338161	1.002
17	169785	35.483828338161	1.002
17	169876	35.513828338161	1.002
17	169886	35.543828338161	1.002
17	170308	35.573828338161	1.002
17	170510	35.603828338161	1.002
17	170520	35.633828338161	1.002
17	170863	35.663828338161	1.002
17	171058	35.693828338161	1.002
17	171112	35.723828338161	1.002
17	171128	35.753828338161	1.002
17	171608	35.783828338161	1.002
17	171699	35.813828338161	1.002
17	171709	35.843828338161	1.002
17	172168	35.873828338161	1.002
17	172370	35.903828338161	1.002
17	172380	35.933828338161	1.002
17	172734	35.963828338161	1.002
17	172929	35.993828338161	1.002
17	172983	36.023828338161	1.002
17	172999	36.053828338161	1.002
17	173495	36.083828338161	1.002
17	173586	36.113828338161	1.002
17	173596	36.143828338161	1.002
17	174034	36.173828338161	1.002
17	174236	36.203828338161	1.002
17	174246	36.233828338161	1.002
17	174584	36.263828338161	1.002
17	174779	36.293828338161	1.002
17	174833	36.323828338161	1.002
17	174849	36.353828338161	1.002
17	175318	36.383828338161	1.002
17	175409	36.413828338161	1.002
17	175419	36.443828338161	1.002
17	175884	36.473828338161	1.002
17	176086	36.503828338161	1.002
17	176096	36.533828338161	1.002
17	176466	36.563828338161	1.002
17	176661	36.593828338161	1.002
17	176715	36.623828338161	1.002
17	176731	36.653828338161	1.002
17	177205	36.683828338161	1.002
17	177296	36.713828338161	1.002
17	177306	36.743828338161	1.002
17	177760	36.773828338161	1.002
17	177962	36.803828338161	1.002
17	177972	36.833828338161	1.002
17	178310	36.863828338161	1.002
17	178505	36.893828338161	1.002
17	178559	36.923828338161	1.002
17	178575	36.953828338161	1.002
17	179055	36.983828338161	1.002
17	179146	37.013828338161	1.002
17	179156	37.043828338161	1.002
17	179605	37.073828338161	1.002
17	179807	37.103828338161	1.002
17	179817	37.133828338161	1.002
17	180187	37.163828338161	1.002
17	180382	37.193828338161	1.002
17	180436	37.223828338161	1.002
17	180452	37.253828338161	1.002
17	180921	37.283828338161	1.002
17	181012	37.313828338161	1.002
17	181022	37.343828338161	1.002
17	181471	37.373828338161	1.002
17	181673	37.403828338161	1.002
17	181683	37.433828338161	1.002
17	182037	37.463828338161	1.002
17	182232	37.493828338161	1.002
17	182286	37.523828338161	1.002
17	182302	37.553828338161	1.002
17	182771	37.583828338161	1.002
17	182862	37.613828338161	1.002
17	182872	37.643828338161	1.002
17	183321	37.673828338161	1.002
17	183523	37.703828338161	1.002
17	183533	37.733828338161	1.002
17	183860	37.763828338161	1.002
17	184055	37.793828338161	1.002
17	184109	37.823828338161	1.002
17	184125	37.853828338161	1.002
17	184610	37.883828338161	1.002
17	184701	37.913828338161	1.002
17	184711	37.943828338161	1.002
17	185165	37.973828338161	1.002
17	185367	38.003828338161	1.002
17	185377	38.033828338161	1.002
17	185720	38.063828338161	1.002
17	185915	38.093828338161	1.002
17	185969	38.123828338161	1.002
17	185985	38.153828338161	1.002
17	186454	38.183828338161	1.002
17	186545	38.213828338161	1.002
17	186555	38.243828338161	1.002
17	187020	38.273828338161	1.002
17	187222	38.303828338161	1.002
17	187232	38.333828338161	1.002
17	187586	38.363828338161	1.002
17	187781	38.393828338161	1.002
17	187835	38.423828338161	1.002
17	187851	38.453828338161	1.002
17	188331	38.483828338161	1.002
17	188422	38.513828338161	1.002
17	188432	38.543828338161	1.002
17	188886	38.573828338161	1.002
17	189088	38.603828338161	1.002
17	189098	38.633828338161	1.002
17	189452	38.663828338161	1.002
17	189647	38.693828338161	1.002
17	189701	38.723828338161	1.002
17	189717	38.753828338161	1.002
17	190202	38.783828338161	1.002
17	190293	38.813828338161	1.002
17	190303	38.843828338161	1.002
17	190773	38.873828338161	1.002
17	190975	38.903828338161	1.002
17	190985	38.933828338161	1.002
17	191355	38.963828338161	1.002
17	191550	38.993828338161	1.002
17	191604	39.023828338161	1.002
17	191620	39.053828338161	1.002
17	192105	39.083828338161	1.002
17	192196	39.113828338161	1.002
17	192206	39.143828338161	1.002
17	192660	39.173828338161	1.002
17	192862	39.203828338161	1.002
17	192872	39.233828338161	1.002
17	193215	39.263828338161	1.002
17	193410	39.293828338161	1.002
17	193464	39.323828338161	1.002
17	193480	39.353828338161	1.002
17	193954	39.383828338161	1.002
17	194045	39.413828338161	1.002
17	194055	39.443828338161	1.002
17	194504	39.473828338161	1.002
17	194706	39.503828338161	1.002
17	194716	39.533828338161	1.002
17	195059	39.563828338161	1.002
17	195254	39.593828338161	1.002
17	195308	39.623828338161	1.002
17	195324	39.653828338161	1.002
17	195809	39.683828338161	1.002
17	195900	39.713828338161	1.002
17	195910	39.743828338161	1.002
17	196348	39.773828338161	1.002
17	196550	39.803828338161	1.002
17	196560	39.833828338161	1.002
17	196887	39.863828338161	1.002
17	197082	39.893828338161	1.002
17	197136	39.923828338161	1.002
17	197152	39.953828338161	1.002
17	197648	39.983828338161	1.002
17	197739	40.013828338161	1.002
17	197749	40.043828338161	1.002
17	198198	40.073828338161	1.002
17	198400	40.103828338161	1.002
17	198410	40.133828338161	1.002
17	198764	40.163828338161	1.002
17	198959	40.193828338161	1.002
17	199013	40.223828338161	1.002
17	199029	40.253828338161	1.002
17	199541	40.283828338161	1.002
17	199632	40.313828338161	1.002
17	199642	40.343828338161	1.002
17	200096	40.373828338161	1.002
17	200298	40.403828338161	1.002
17	200308	40.433828338161	1.002
17	200640	40.463828338161	1.002
17	200835	40.493828338161	1.002
17	200889	40.523828338161	1.002
17	200905	40.553828338161	1.002
17	201401	40.583828338161	1.002
17	201492	40.613828338161	1.002
17	201502	40.643828338161	1.002
17	201967	40.673828338161	1.002
17	202169	40.703828338161	1.002
17	202179	40.733828338161	1.002
17	202506	40.763828338161	1.002
17	202701	40.793828338161	1.002
17	202755	40.823828338161	1.002
17	202771	40.853828338161	1.002
17	203251	40.883828338161	1.002
17	203342	40.913828338161	1.002
17	203352	40.943828338161	1.002
17	203833	40.973828338161	1.002
17	204035	41.003828338161	1.002
17	204045	41.033828338161	1.002
17	204399	41.063828338161	1.002
17	204594	41.093828338161	1.002
17	204648	41.123828338161	1.002
17	204664	41.153828338161	1.002
17	205176	41.183828338161	1.002
17	205267	41.213828338161	1.002
17	205277	41.243828338161	1.002
17	205747	41.273828338161	1.002
17	205949	41.303828338161	1.002
17	205959	41.333828338161	1.002
17	206313	41.363828338161	1.002
17	206508	41.393828338161	1.002
17	206562	41.423828338161	1.002
17	206578	41.453828338161	1.002
17	207079	41.483828338161	1.002
17	207170	41.513828338161	1.002
17	207180	41.543828338161	1.002
17	207629	41.573828338161	1.002
17	207831	41.603828338161	1.002
17	207841	41.633828338161	1.002
17	208195	41.663828338161	1.002
17	208390	41.693828338161	1.002
17	208444	41.723828338161	1.002
17	208460	41.753828338161	1.002
17	208956	41.783828338161	1.002
17	209047	41.813828338161	1.002
17	209057	41.843828338161	1.002
17	209495	41.873828338161	1.002
17	209697	41.903828338161	1.002
17	209707	41.933828338161	1.002
17	210045	41.963828338161	1.002
17	210240	41.993828338161	1.002
17	210294	42.023828338161	1.002
17	210310	42.053828338161	1.002
17	210795	42.083828338161	1.002
17	210886	42.113828338161	1.002
17	210896	42.143828338161	1.002
17	211345	42.173828338161	1.002
17	211547	42.203828338161	1.002
17	211557	42.233828338161	1.002
17	211895	42.263828338161	1.002
17	212090	42.293828338161	1.002
17	212144	42.323828338161	1.002
17	212160	42.353828338161	1.002
17	212640	42.383828338161	1.002
17	212731	42.413828338161	1.002
17	212741	42.443828338161	1.002
17	213195	42.473828338161	1.002
17	213397	42.503828338161	1.002
17	213407	42.533828338161	1.002
17	213739	42.563828338161	1.002
17	213934	42.593828338161	1.002
17	213988	42.623828338161	1.002
17	214004	42.653828338161	1.002
17	214500	42.683828338161	1.002
17	214591	42.713828338161	1.002
17	214601	42.743828338161	1.002
17	215055	42.773828338161	1.002
17	215257	42.803828338161	1.002
17	215267	42.833828338161	1.002
17	215621	42.863828338161	1.002
17	215816	42.893828338161	1.002
17	215870	42.923828338161	1.002
17	215886	42.953828338161	1.002
17	216366	42.983828338161	1.002
17	216457	43.013828338161	1.002
17	216467	43.043828338161	1.002
17	216921	43.073828338161	1.002
17	217123	43.103828338161	1.002
17	217133	43.133828338161	1.002
17	217471	43.163828338161	1.002
17	217666	43.193828338161	1.002
17	217720	43.223828338161	1.002
17	217736	43.253828338161	1.002
17	218232	43.283828338161	1.002
17	218323	43.313828338161	1.002
17	218333	43.343828338161	1.002
17	218782	43.373828338161	1.002
17	218984	43.403828338161	1.002
17	218994	43.433828338161	1.002
17	219348	43.463828338161	1.002
17	219543	43.493828338161	1.002
17	219597	43.523828338161	1.002
17	219613	43.553828338161	1.002
17	220114	43.583828338161	1.002
17	220205	43.613828338161	1.002
17	220215	43.643828338161	1.002
17	220664	43.673828338161	1.002
17	220866	43.703828338161	1.002
17	220876	43.733828338161	1.002
17	221235	43.763828338161	1.002
17	221430	43.793828338161	1.002
17	221484	43.823828338161	1.002
17	221500	43.853828338161	1.002
17	221980	43.883828338161	1.002
17	222071	43.913828338161	1.002
17	222081	43.943828338161	1.002
17	222530	43.973828338161	1.002
17	222732	44.003828338161	1.002
17	222742	44.033828338161	1.002
17	223069	44.063828338161	1.002
17	223264	44.093828338161	1.002
17	223318	44.123828338161	1.002
17	223334	44.153828338161	1.002
17	223814	44.183828338161	1.002
17	223905	44.213828338161	1.002
17	223915	44.243828338161	1.002
17	224380	44.273828338161	1.002
17	224582	44.303828338161	1.002
17	224592	44.333828338161	1.002
17	224919	44.363828338161	1.002
17	225114	44.393828338161	1.002
17	225168	44.423828338161	1.002
17	225184	44.453828338161	1.002
17	225664	44.483828338161	1.002
17	225755	44.513828338161	1.002
17	225765	44.543828338161	1.002
17	226219	44.573828338161	1.002
17	226421	44.603828338161	1.002
17	226431	44.633828338161	1.002
17	226790	44.663828338161	1.002
17	226985	44.693828338161	1.002
17	227039	44.723828338161	1.002
17	227055	44.753828338161	1.002
17	227524	44.783828338161	1.002
17	227615	44.813828338161	1.002
17	227625	44.843828338161	1.002
17	228063	44.873828338161	1.002
17	228265	44.903828338161	1.002
17	228275	44.933828338161	1.002
17	228618	44.963828338161	1.002
17	228813	44.993828338161	1.002
17	228867	45.023828338161	1.002
17	228883	45.053828338161	1.002
17	229373	45.083828338161	1.002
17	229464	45.113828338161	1.002
17	229474	45.143828338161	1.002
17	229939	45.173828338161	1.002
17	230141	45.203828338161	1.002
17	230151	45.233828338161	1.002
17	230494	45.263828338161	1.002
17	230689	45.293828338161	1.002
17	230743	45.323828338161	1.002
17	230759	45.353828338161	1.002
17	231244	45.383828338161	1.002
17	231335	45.413828338161	1.002
17	231345	45.443828338161	1.002
17	231794	45.473828338161	1.002
17	231996	45.503828338161	1.002
17	232006	45.533828338161	1.002
17	232349	45.563828338161	1.002
17	232544	45.593828338161	1.002
17	232598	45.623828338161	1.002
17	232614	45.653828338161	1.002
17	233126	45.683828338161	1.002
17	233217	45.713828338161	1.002
17	233227	45.743828338161	1.002
17	233665	45.773828338161	1.002
17	233867	45.803828338161	1.002
17	233877	45.833828338161	1.002
17	234220	45.863828338161	1.002
17	234415	45.893828338161	1.002
17	234469	45.923828338161	1.002
17	234485	45.953828338161	1.002
17	234965	45.983828338161	1.002
17	235056	46.013828338161	1.002
17	235066	46.043828338161	1.002
17	235520	46.073828338161	1.002
17	235722	46.103828338161	1.002
17	235732	46.133828338161	1.002
17	236059	46.163828338161	1.002
17	236254	46.193828338161	1.002
17	236308	46.223828338161	1.002
17	236324	46.253828338161	1.002
17	236809	46.283828338161	1.002
17	236900	46.313828338161	1.002
17	236910	46.343828338161	1.002
17	237359	46.373828338161	1.002
17	237561	46.403828338161	1.002
17	237571	46.433828338161	1.002
17	237909	46.463828338161	1.002
17	238104	46.493828338161	1.002
17	238158	46.523828338161	1.002
17	238174	46.553828338161	1.002
17	238659	46.583828338161	1.002
17	238750	46.613828338161	1.002
17	238760	46.643828338161	1.002
17	239225	46.673828338161	1.002
17	239427	46.703828338161	1.002
17	239437	46.733828338161	1.002
17	239780	46.763828338161	1.002
17	239975	46.793828338161	1.002
17	240029	46.823828338161	1.002
17	240045	46.853828338161	1.002
17	240525	46.883828338161	1.002
17	240616	46.913828338161	1.002
17	240626	46.943828338161	1.002
17	241075	46.973828338161	1.002
17	241277	47.003828338161	1.002
17	241287	47.033828338161	1.002
17	241609	47.063828338161	1.002
17	241804	47.093828338161	1.002
17	241858	47.123828338161	1.002
17	241874	47.153828338161	1.002
17	242370	47.183828338161	1.002
17	242461	47.213828338161	1.002
17	242471	47.243828338161	1.002
17	242920	47.273828338161	1.002
17	243122	47.303828338161	1.002
17	243132	47.333828338161	1.002
17	243459	47.363828338161	1.002
17	243654	47.393828338161	1.002
17	243708	47.423828338161	1.002
17	243724	47.453828338161	1.002
17	244204	47.483828338161	1.002
17	244295	47.513828338161	1.002
17	244305	47.543828338161	1.002
17	244759	47.573828338161	1.002
17	244961	47.603828338161	1.002
17	244971	47.633828338161	1.002
17	245303	47.663828338161	1.002
17	245498	47.693828338161	1.002
17	245552	47.723828338161	1.002
17	245568	47.753828338161	1.002
17	246048	47.783828338161	1.002
17	246139	47.813828338161	1.002
17	246149	47.843828338161	1.002
17	246592	47.873828338161	1.002
17	246794	47.903828338161	1.002
17	246804	47.933828338161	1.002
17	247131	47.963828338161	1.002
17	247326	47.993828338161	1.002
17	247380	48.023828338161	1.002
17	247396	48.053828338161	1.002
17	247865	48.083828338161	1.002
17	247956	48.113828338161	1.002
17	247966	48.143828338161	1.002
17	248436	48.173828338161	1.002
17	248638	48.203828338161	1.002
17	248648	48.233828338161	1.002
17	248970	48.263828338161	1.002
17	249165	48.293828338161	1.002
17	249219	48.323828338161	1.002
17	249235	48.353828338161	1.002
17	249731	48.383828338161	1.002
17	249822	48.413828338161	1.002
17	249832	48.443828338161	1.002
17	250286	48.473828338161	1.002
17	250488	48.503828338161	1.002
17	250498	48.533828338161	1.002
17	250841	48.563828338161	1.002
17	251036	48.593828338161	1.002
17	251090	48.623828338161	1.002
17	251106	48.653828338161	1.002
17	251591	48.683828338161	1.002
17	251682	48.713828338161	1.002
17	251692	48.743828338161	1.002
17	252157	48.773828338161	1.002
17	252359	48.803828338161	1.002
17	252369	48.833828338161	1.002
17	252696	48.863828338161	1.002
17	252891	48.893828338161	1.002
17	252945	48.923828338161	1.002
17	252961	48.953828338161	1.002
17	253462	48.983828338161	1.002
17	253553	49.013828338161	1.002
17	253563	49.043828338161	1.002
17	254033	49.073828338161	1.002
17	254235	49.103828338161	1.002
17	254245	49.133828338161	1.002
17	254583	49.163828338161	1.002
17	254778	49.193828338161	1.002
17	254832	49.223828338161	1.002
17	254848	49.253828338161	1.002
17	255306	49.283828338161	1.002
17	255397	49.313828338161	1.002
17	255407	49.343828338161	1.002
17	255872	49.373828338161	1.002
17	256074	49.403828338161	1.002
17	256084	49.433828338161	1.002
17	256427	49.463828338161	1.002
17	256622	49.493828338161	1.002
17	256676	49.523828338161	1.002
17	256692	49.553828338161	1.002
17	257204	49.583828338161	1.002
17	257295	49.613828338161	1.002
17	257305	49.643828338161	1.002
17	257770	49.673828338161	1.002
17	257972	49.703828338161	1.002
17	257982	49.733828338161	1.002
17	258314	49.763828338161	1.002
17	258509	49.793828338161	1.002
17	258563	49.823828338161	1.002
17	258579	49.853828338161	1.002
17	259064	49.883828338161	1.002
17	259155	49.913828338161	1.002
17	259165	49.943828338161	1.002
17	259614	49.973828338161	1.002
17	259816	50.003828338161	1.002
17	259826	50.033828338161	1.002
17	260169	50.063828338161	1.002
17	260364	50.093828338161	1.002
17	260418	50.123828338161	1.002
17	260434	50.153828338161	1.002
17	260914	50.183828338161	1.002
17	261005	50.213828338161	1.002
17	261015	50.243828338161	1.002
17	261485	50.273828338161	1.002
17	261687	50.303828338161	1.002
17	261697	50.333828338161	1.002
17	262040	50.363828338161	1.002
17	262235	50.393828338161	1.002
17	262289	50.423828338161	1.002
17	262305	50.453828338161	1.002
17	262774	50.483828338161	1.002
17	262865	50.513828338161	1.002
17	262875	50.543828338161	1.002
17	263329	50.573828338161	1.002
17	263531	50.603828338161	1.002
17	263541	50.633828338161	1.002
17	263884	50.663828338161	1.002
17	264079	50.693828338161	1.002
17	264133	50.723828338161	1.002
17	264149	50.753828338161	1.002
17	264629	50.783828338161	1.002
17	264720	50.813828338161	1.002
17	264730	50.843828338161	1.002
17	265195	50.873828338161	1.002
17	265397	50.903828338161	1.002
17	265407	50.933828338161	1.002
17	265761	50.963828338161	1.002
17	265956	50.993828338161	1.002
17	266010	51.023828338161	1.002
17	266026	51.053828338161	1.002
17	266522	51.083828338161	1.002
17	266613	51.113828338161	1.002
17	266623	51.143828338161	1.002
17	267077	51.173828338161	1.002
17	267279	51.203828338161	1.002
17	267289	51.233828338161	1.002
17	267643	51.263828338161	1.002
17	267838	51.293828338161	1.002
17	267892	51.323828338161	1.002
17	267908	51.353828338161	1.002
17	268388	51.383828338161	1.002
17	268479	51.413828338161	1.002
17	268489	51.443828338161	1.002
17	268943	51.473828338161	1.002
17	269145	51.503828338161	1.002
17	269155	51.533828338161	1.002
17	269487	51.563828338161	1.002
17	269682	51.593828338161	1.002
17	269736	51.623828338161	1.002
17	269752	51.653828338161	1.002
17	270253	51.683828338161	1.002
17	270344	51.713828338161	1.002
17	270354	51.743828338161	1.002
17	270803	51.773828338161	1.002
17	271005	51.803828338161	1.002
17	271015	51.833828338161	1.002
17	271369	51.863828338161	1.002
17	271564	51.893828338161	1.002
17	271618	51.923828338161	1.002
17	271634	51.953828338161	1.002
17	272130	51.983828338161	1.002
17	272221	52.013828338161	1.002
17	272231	52.043828338161	1.002
17	272669	52.073828338161	1.002
17	272871	52.103828338161	1.002
17	272881	52.133828338161	1.002
17	273208	52.163828338161	1.002
17	273403	52.193828338161	1.002
17	273457	52.223828338161	1.002
17	273473	52.253828338161	1.002
17	273974	52.283828338161	1.002
17	274065	52.313828338161	1.002
17	274075	52.343828338161	1.002
17	274540	52.373828338161	1.002
17	274742	52.403828338161	1.002
17	274752	52.433828338161	1.002
17	275095	52.463828338161	1.002
17	275290	52.493828338161	1.002
17	275344	52.523828338161	1.002
17	275360	52.553828338161	1.002
17	275861	52.583828338161	1.002
17	275952	52.613828338161	1.002
17	275962	52.643828338161	1.002
17	276427	52.673828338161	1.002
17	276629	52.703828338161	1.002
17	276639	52.733828338161	1.002
17	276982	52.763828338161	1.002
17	277177	52.793828338161	1.002
17	277231	52.823828338161	1.002
17	277247	52.853828338161	1.002
17	277721	52.883828338161	1.002
17	277812	52.913828338161	1.002
17	277822	52.943828338161	1.002
17	278271	52.973828338161	1.002
17	278473	53.003828338161	1.002
17	278483	53.033828338161	1.002
17	278821	53.063828338161	1.002
17	279016	53.093828338161	1.002
17	279070	53.123828338161	1.002
17	279086	53.153828338161	1.002
17	279582	53.183828338161	1.002
17	279673	53.213828338161	1.002
17	279683	53.243828338161	1.002
17	280148	53.273828338161	1.002
17	280350	53.303828338161	1.002
17	280360	53.333828338161	1.002
17	280730	53.363828338161	1.002
17	280925	53.393828338161	1.002
17	280979	53.423828338161	1.002
17	280995	53.453828338161	1.002
17	281469	53.483828338161	1.002
17	281560	53.513828338161	1.002
17	281570	53.543828338161	1.002
17	282003	53.573828338161	1.002
17	282205	53.603828338161	1.002
17	282215	53.633828338161	1.002
17	282558	53.663828338161	1.002
17	282753	53.693828338161	1.002
17	282807	53.723828338161	1.002
17	282823	53.753828338161	1.002
17	283292	53.783828338161	1.002
17	283383	53.813828338161	1.002
17	283393	53.843828338161	1.002
17	283842	53.873828338161	1.002
17	284044	53.903828338161	1.002
17	284054	53.933828338161	1.002
17	284402	53.963828338161	1.002
17	284597	53.993828338161	1.002
17	284651	54.023828338161	1.002
17	284667	54.053828338161	1.002
17	285136	54.083828338161	1.002
17	285227	54.113828338161	1.002
17	285237	54.143828338161	1.002
17	285686	54.173828338161	1.002
17	285888	54.203828338161	1.002
17	285898	54.233828338161	1.002
17	286252	54.263828338161	1.002
17	286447	54.293828338161	1.002
17	286501	54.323828338161	1.002
17	286517	54.353828338161	1.002
17	287013	54.383828338161	1.002
17	287104	54.413828338161	1.002
17	287114	54.443828338161	1.002
17	287584	54.473828338161	1.002
17	287786	54.503828338161	1.002
17	287796	54.533828338161	1.002
17	288134	54.563828338161	1.002
17	288329	54.593828338161	1.002
17	288383	54.623828338161	1.002
17	288399	54.653828338161	1.002
17	288879	54.683828338161	1.002
17	288970	54.713828338161	1.002
17	288980	54.743828338161	1.002
17	289429	54.773828338161	1.002
17	289631	54.803828338161	1.002
17	289641	54.833828338161	1.002
17	289984	54.863828338161	1.002
17	290179	54.893828338161	1.002
17	290233	54.923828338161	1.002
17	290249	54.953828338161	1.002
17	290745	54.983828338161	1.002
17	290836	55.013828338161	1.002
17	290846	55.043828338161	1.002
17	291311	55.073828338161	1.002
17	291513	55.103828338161	1.002
17	291523	55.133828338161	1.002
17	291850	55.163828338161	1.002
17	292045	55.193828338161	1.002
17	292099	55.223828338161	1.002
17	292115	55.253828338161	1.002
17	292611	55.283828338161	1.002
17	292702	55.313828338161	1.002
17	292712	55.343828338161	1.002
17	293177	55.373828338161	1.002
17	293379	55.403828338161	1.002
17	293389	55.433828338161	1.002
17	293743	55.463828338161	1.002
17	293938	55.493828338161	1.002
17	293992	55.523828338161	1.002
17	294008	55.553828338161	1.002
17	294482	55.583828338161	1.002
17	294573	55.613828338161	1.002
17	294583	55.643828338161	1.002
17	295032	55.673828338161	1.002
17	295234	55.703828338161	1.002
17	295244	55.733828338161	1.002
17	295582	55.763828338161	1.002
17	295777	55.793828338161	1.002
17	295831	55.823828338161	1.002
17	295847	55.853828338161	1.002
17	296327	55.883828338161	1.002
17	296418	55.913828338161	1.002
17	296428	55.943828338161	1.002
17	296877	55.973828338161	1.002
17	297079	56.003828338161	1.002
17	297089	56.033828338161	1.002
17	297432	56.063828338161	1.002
17	297627	56.093828338161	1.002
17	297681	56.123828338161	1.002
17	297697	56.153828338161	1.002
17	298182	56.183828338161	1.002
17	298273	56.213828338161	1.002
17	298283	56.243828338161	1.002
17	298748	56.273828338161	1.002
17	298950	56.303828338161	1.002
17	298960	56.333828338161	1.002
17	299319	56.363828338161	1.002
17	299514	56.393828338161	1.002
17	299568	56.423828338161	1.002
17	299584	56.453828338161	1.002
17	300069	56.483828338161	1.002
17	300160	56.513828338161	1.002
17	300170	56.543828338161	1.002
17	300635	56.573828338161	1.002
17	300837	56.603828338161	1.002
17	300847	56.633828338161	1.002
17	301185	56.663828338161	1.002
17	301380	56.693828338161	1.002
17	301434	56.723828338161	1.002
17	301450	56.753828338161	1.002
17	301946	56.783828338161	1.002
17	302037	56.813828338161	1.002
17	302047	56.843828338161	1.002
17	302512	56.873828338161	1.002
17	302714	56.903828338161	1.002
17	302724	56.933828338161	1.002
17	303078	56.963828338161	1.002
17	303273	56.993828338161	1.002
17	303327	57.023828338161	1.002
17	303343	57.053828338161	1.002
17	303823	57.083828338161	1.002
17	303914	57.113828338161	1.002
17	303924	57.143828338161	1.002
17	304378	57.173828338161	1.002
17	304580	57.203828338161	1.002
17	304590	57.233828338161	1.002
17	304944	57.263828338161	1.002
17	305139	57.293828338161	1.002
17	305193	57.323828338161	1.002
17	305209	57.353828338161	1.002
17	305705	57.383828338161	1.002
17	305796	57.413828338161	1.002
17	305806	57.443828338161	1.002
17	306271	57.473828338161	1.002
17	306473	57.503828338161	1.002
17	306483	57.533828338161	1.002
17	306826	57.563828338161	1.002
17	307021	57.593828338161	1.002
17	307075	57.623828338161	1.002
17	307091	57.653828338161	1.002
17	307555	57.683828338161	1.002
17	307646	57.713828338161	1.002
17	307656	57.743828338161	1.002
17	308110	57.773828338161	1.002
17	308312	57.803828338161	1.002
17	308322	57.833828338161	1.002
17	308649	57.863828338161	1.002
17	308844	57.893828338161	1.002
17	308898	57.923828338161	1.002
17	308914	57.953828338161	1.002
17	309415	57.983828338161	1.002
17	309506	58.013828338161	1.002
17	309516	58.043828338161	1.002
17	309981	58.073828338161	1.002
17	310183	58.103828338161	1.002
17	310193	58.133828338161	1.002
17	310525	58.163828338161	1.002
17	310720	58.193828338161	1.002
17	310774	58.223828338161	1.002
17	310790	58.253828338161	1.002
17	311275	58.283828338161	1.002
17	311366	58.313828338161	1.002
17	311376	58.343828338161	1.002
17	311809	58.373828338161	1.002
17	312011	58.403828338161	1.002
17	312021	58.433828338161	1.002
17	312353	58.463828338161	1.002
17	312548	58.493828338161	1.002
17	312602	58.523828338161	1.002
17	312618	58.553828338161	1.002
17	313114	58.583828338161	1.002
17	313205	58.613828338161	1.002
17	313215	58.643828338161	1.002
17	313680	58.673828338161	1.002
17	313882	58.703828338161	1.002
17	313892	58.733828338161	1.002
17	314235	58.763828338161	1.002
17	314430	58.793828338161	1.002
17	314484	58.823828338161	1.002
17	314500	58.853828338161	1.002
17	314974	58.883828338161	1.002
17	315065	58.913828338161	1.002
17	315075	58.943828338161	1.002
17	315545	58.973828338161	1.002
17	315747	59.003828338161	1.002
17	315757	59.033828338161	1.002
17	316100	59.063828338161	1.002
17	316295	59.093828338161	1.002
17	316349	59.123828338161	1.002
17	316365	59.153828338161	1.002
17	316839	59.183828338161	1.002
17	316930	59.213828338161	1.002
17	316940	59.243828338161	1.002
17	317389	59.273828338161	1.002
17	317591	59.303828338161	1.002
17	317601	59.333828338161	1.002
17	317939	59.363828338161	1.002
17	318134	59.393828338161	1.002
17	318188	59.423828338161	1.002
17	318204	59.453828338161	1.002
17	318689	59.483828338161	1.002
17	318780	59.513828338161	1.002
17	318790	59.543828338161	1.002
17	319223	59.573828338161	1.002
17	319425	59.603828338161	1.002
17	319435	59.633828338161	1.002
17	319773	59.663828338161	1.002
17	319968	59.693828338161	1.002
17	320022	59.723828338161	1.002
17	320038	59.753828338161	1.002
17	320534	59.783828338161	1.002
17	320625	59.813828338161	1.002
17	320635	59.843828338161	1.002
17	321068	59.873828338161	1.002
17	321270	59.903828338161	1.002
17	321280	59.933828338161	1.002
17	321607	59.963828338161	1.002
17	321802	59.993828338161	1.002
17	321856	60.023828338161	1.002
17	321872	60.053828338161	1.002
17	322357	60.083828338161	1.002
17	322448	60.113828338161	1.002
17	322458	60.143828338161	1.002
17	322896	60.173828338161	1.002
17	323098	60.203828338161	1.002
17	323108	60.233828338161	1.002
17	323429	60.263828338161	1.002
17	323624	60.293828338161	1.002
17	323678	60.323828338161	1.002
17	323694	60.353828338161	1.002
17	324222	60.383828338161	1.002
17	324313	60.413828338161	1.002
17	324323	60.443828338161	1.002
17	324793	60.473828338161	1.002
17	324995	60.503828338161	1.002
17	325005	60.533828338161	1.002
17	325321	60.563828338161	1.002
17	325516	60.593828338161	1.002
17	325570	60.623828338161	1.002
17	325586	60.653828338161	1.002
17	326082	60.683828338161	1.002
17	326173	60.713828338161	1.002
17	326183	60.743828338161	1.002
17	326637	60.773828338161	1.002
17	326839	60.803828338161	1.002
17	326849	60.833828338161	1.002
17	327171	60.863828338161	1.002
17	327366	60.893828338161	1.002
17	327420	60.923828338161	1.002
17	327436	60.953828338161	1.002
17	327916	60.983828338161	1.002
17	328007	61.013828338161	1.002
17	328017	61.043828338161	1.002
17	328482	61.073828338161	1.002
17	328684	61.103828338161	1.002
17	328694	61.133828338161	1.002
17	329032	61.163828338161	1.002
17	329227	61.193828338161	1.002
17	329281	61.223828338161	1.002
17	329297	61.253828338161	1.002
17	329782	61.283828338161	1.002
17	329873	61.313828338161	1.002
17	329883	61.343828338161	1.002
17	330348	61.373828338161	1.002
17	330550	61.403828338161	1.002
17	330560	61.433828338161	1.002
17	330908	61.463828338161	1.002
17	331103	61.493828338161	1.002
17	331157	61.523828338161	1.002
17	331173	61.553828338161	1.002
17	331669	61.583828338161	1.002
17	331760	61.613828338161	1.002
17	331770	61.643828338161	1.002
17	332235	61.673828338161	1.002
16	10	0.233828338161	1
16	27	0.263828338161	2
16	42	0.293828338161	3
16	60	0.323828338161	4
16	64	0.353828338161	5
16	92	0.383828338161	6
16	110	0.413828338161	7
16	112	0.443828338161	8
16	142	0.473828338161	9
16	160	0.503828338161	10
16	162	0.533828338161	11
16	192	0.563828338161	12
16	207	0.593828338161	13
16	225	0.623828338161	14
16	229	0.653828338161	15
16	257	0.683828338161	16
16	275	0.713828338161	17
16	277	0.743828338161	18
16	307	0.773828338161	19
16	325	0.803828338161	20
16	327	0.833828338161	21
16	357	0.863828338161	22
16	372	0.893828338161	23
16	390	0.923828338161	24
16	394	0.953828338161	25
16	422	0.983828338161	26
16	440	1.013828338161	27
16	442	1.043828338161	28
16	472	1.073828338161	29
16	490	1.103828338161	30
16	492	1.133828338161	31
16	522	1.163828338161	32
16	537	1.193828338161	33
16	555	1.223828338161	34
16	559	1.253828338161	35
16	587	1.283828338161	36
16	605	1.313828338161	37
16	607	1.343828338161	38
16	637	1.373828338161	39
16	655	1.403828338161	40
16	657	1.433828338161	41
16	687	1.463828338161	42
16	702	1.493828338161	43
16	720	1.523828338161	44
16	724	1.553828338161	45
16	752	1.583828338161	46
16	770	1.613828338161	47
16	772	1.643828338161	48
16	802	1.673828338161	49
16	820	1.703828338161	50
16	822	1.733828338161	51
16	852	1.763828338161	52
16	867	1.793828338161	53
16	885	1.823828338161	54
16	889	1.853828338161	55
16	917	1.883828338161	56
16	935	1.913828338161	57
16	937	1.943828338161	58
16	967	1.973828338161	59
16	985	2.003828338161	60
16	987	2.033828338161	61
16	1017	2.063828338161	62
16	1032	2.093828338161	63
16	1050	2.123828338161	64
16	1054	2.153828338161	65
16	1082	2.183828338161	66
16	1100	2.213828338161	67
16	1102	2.243828338161	68
16	1132	2.273828338161	69
16	1150	2.303828338161	70
16	1152	2.333828338161	71
16	1182	2.363828338161	72
16	1197	2.393828338161	73
16	1215	2.423828338161	74
16	1219	2.453828338161	75
16	1247	2.483828338161	76
16	1265	2.513828338161	77
16	1267	2.543828338161	78
16	1297	2.573828338161	79
16	1315	2.603828338161	80
16	1317	2.633828338161	81
16	1347	2.663828338161	82
16	1362	2.693828338161	83
16	1380	2.723828338161	84
16	1384	2.753828338161	85
16	1412	2.783828338161	86
16	1430	2.813828338161	87
16	1432	2.843828338161	88
16	1462	2.873828338161	89
16	1480	2.903828338161	90
16	1482	2.933828338161	91
16	1512	2.963828338161	92
16	1527	2.993828338161	93
16	1545	3.023828338161	94
16	1549	3.053828338161	95
16	1577	3.083828338161	96
16	1595	3.113828338161	97
16	1597	3.143828338161	98
16	1640	3.173828338161	99
16	1665	3.203828338161	100
16	1667	3.233828338161	101
16	1710	3.263828338161	102
16	1731	3.293828338161	103
16	1756	3.323828338161	104
16	1761	3.353828338161	105
16	1801	3.383828338161	106
16	1826	3.413828338161	107
16	1828	3.443828338161	108
16	1871	3.473828338161	109
16	1896	3.503828338161	110
16	1898	3.533828338161	111
16	1941	3.563828338161	112
16	1962	3.593828338161	113
16	1987	3.623828338161	114
16	1992	3.653828338161	115
16	2032	3.683828338161	116
16	2057	3.713828338161	117
16	2059	3.743828338161	118
16	2123	3.773828338161	120
16	2169	3.803828338161	122
16	2173	3.833828338161	124
16	2249	3.863828338161	126
16	2291	3.893828338161	128
16	2318	3.923828338161	130
16	2325	3.953828338161	132
16	2424	3.983828338161	134
16	2451	4.013828338161	136
16	2455	4.043828338161	138
16	2557	4.073828338161	140
16	2603	4.103828338161	142
16	2607	4.133828338161	144
16	2690	4.163828338161	146
16	2732	4.193828338161	148
16	2759	4.223828338161	150
16	2766	4.253828338161	152
16	2865	4.283828338161	154
16	2892	4.313828338161	156
16	2896	4.343828338161	158
16	2998	4.373828338161	160
16	3044	4.403828338161	162
16	3048	4.433828338161	164
16	3131	4.463828338161	166
16	3173	4.493828338161	168
16	3200	4.523828338161	170
16	3207	4.553828338161	172
16	3306	4.583828338161	174
16	3333	4.613828338161	176
16	3337	4.643828338161	178
16	3439	4.673828338161	180
16	3485	4.703828338161	182
16	3489	4.733828338161	184
16	3572	4.763828338161	186
16	3614	4.793828338161	188
16	3641	4.823828338161	190
16	3648	4.853828338161	192
16	3747	4.883828338161	194
16	3774	4.913828338161	196
16	3778	4.943828338161	198
16	3880	4.973828338161	200
16	3926	5.003828338161	202
16	3930	5.033828338161	204
16	4013	5.063828338161	206
16	4055	5.093828338161	208
16	4082	5.123828338161	210
16	4089	5.153828338161	212
16	4188	5.183828338161	214
16	4215	5.213828338161	216
16	4219	5.243828338161	218
16	4321	5.273828338161	220
16	4367	5.303828338161	222
16	4371	5.333828338161	224
16	4454	5.363828338161	226
16	4496	5.393828338161	228
16	4523	5.423828338161	230
16	4530	5.453828338161	232
16	4629	5.483828338161	234
16	4656	5.513828338161	236
16	4660	5.543828338161	238
16	4762	5.573828338161	240
16	4808	5.603828338161	242
16	4812	5.633828338161	244
16	4895	5.663828338161	246
16	4937	5.693828338161	248
16	4964	5.723828338161	250
16	4971	5.753828338161	252
16	5070	5.783828338161	254
16	5097	5.813828338161	256
16	5101	5.843828338161	258
16	5196	5.873828338161	260
16	5242	5.903828338161	262
16	5246	5.933828338161	264
16	5329	5.963828338161	266
16	5371	5.993828338161	268
16	5398	6.023828338161	270
16	5405	6.053828338161	272
16	5504	6.083828338161	274
16	5531	6.113828338161	276
16	5535	6.143828338161	278
16	5658	6.173828338161	280
16	5717	6.203828338161	282
16	5721	6.233828338161	284
16	5829	6.263828338161	286
16	5883	6.293828338161	288
16	5917	6.323828338161	290
16	5925	6.353828338161	292
16	6054	6.383828338161	294
16	6088	6.413828338161	296
16	6092	6.443828338161	298
16	6225	6.473828338161	300
16	6284	6.503828338161	302
16	6288	6.533828338161	304
16	6396	6.563828338161	306
16	6450	6.593828338161	308
16	6484	6.623828338161	310
16	6492	6.653828338161	312
16	6648	6.683828338161	315
16	6684	6.713828338161	318
16	6690	6.743828338161	321
16	6890	6.773828338161	324
16	6976	6.803828338161	327
16	6982	6.833828338161	330
16	7132	6.863828338161	333
16	7213	6.893828338161	336
16	7249	6.923828338161	339
16	7259	6.953828338161	342
16	7465	6.983828338161	345
16	7501	7.013828338161	348
16	7507	7.043828338161	351
16	7707	7.073828338161	354
16	7793	7.103828338161	357
16	7799	7.133828338161	360
16	7959	7.163828338161	363
16	8040	7.193828338161	366
16	8076	7.223828338161	369
16	8086	7.253828338161	372
16	8292	7.283828338161	375
16	8328	7.313828338161	378
16	8334	7.343828338161	381
16	8544	7.373828338161	384
16	8630	7.403828338161	387
16	8636	7.433828338161	390
16	8786	7.463828338161	393
16	8867	7.493828338161	396
16	8903	7.523828338161	399
16	8913	7.553828338161	402
16	9119	7.583828338161	405
16	9155	7.613828338161	408
16	9161	7.643828338161	411
16	9371	7.673828338161	414
16	9457	7.703828338161	417
16	9463	7.733828338161	420
16	9623	7.763828338161	423
16	9704	7.793828338161	426
16	9740	7.823828338161	429
16	9750	7.853828338161	432
16	9956	7.883828338161	435
16	9992	7.913828338161	438
16	9998	7.943828338161	441
16	10198	7.973828338161	444
16	10284	8.003828338161	447
16	10290	8.033828338161	450
16	10440	8.063828338161	453
16	10521	8.093828338161	456
16	10557	8.123828338161	459
16	10567	8.153828338161	462
16	10763	8.183828338161	465
16	10799	8.213828338161	468
16	10805	8.243828338161	471
16	11005	8.273828338161	474
16	11091	8.303828338161	477
16	11097	8.333828338161	480
16	11257	8.363828338161	483
16	11338	8.393828338161	486
16	11374	8.423828338161	489
16	11384	8.453828338161	492
16	11580	8.483828338161	495
16	11616	8.513828338161	498
16	11622	8.543828338161	501
16	11812	8.573828338161	504
16	11898	8.603828338161	507
16	11904	8.633828338161	510
16	12054	8.663828338161	513
16	12135	8.693828338161	516
16	12171	8.723828338161	519
16	12181	8.753828338161	522
16	12377	8.783828338161	525
16	12413	8.813828338161	528
16	12419	8.843828338161	531
16	12629	8.873828338161	534
16	12715	8.903828338161	537
16	12721	8.933828338161	540
16	12871	8.963828338161	543
16	12952	8.993828338161	546
16	12988	9.023828338161	549
16	12998	9.053828338161	552
16	13194	9.083828338161	555
16	13230	9.113828338161	558
16	13236	9.143828338161	561
16	13495	9.173828338161	564
16	13600	9.203828338161	567
16	13606	9.233828338161	570
16	13790	9.263828338161	573
16	13889	9.293828338161	576
16	13932	9.323828338161	579
16	13943	9.353828338161	582
16	14197	9.383828338161	585
16	14240	9.413828338161	588
16	14246	9.443828338161	591
16	14479	9.473828338161	594
16	14584	9.503828338161	597
16	14590	9.533828338161	600
16	14761	9.563828338161	603
16	14860	9.593828338161	606
16	14903	9.623828338161	609
16	14914	9.653828338161	612
16	15155	9.683828338161	615
16	15198	9.713828338161	618
16	15204	9.743828338161	621
16	15470	9.773828338161	625
16	15608	9.803828338161	629
16	15616	9.833828338161	633
16	15864	9.863828338161	637
16	15996	9.893828338161	641
16	16041	9.923828338161	645
16	16054	9.953828338161	649
16	16390	9.983828338161	653
16	16435	10.013828338161	657
16	16443	10.043828338161	661
16	16771	10.073828338161	665
16	16909	10.103828338161	669
16	16917	10.133828338161	673
16	17165	10.163828338161	677
16	17297	10.193828338161	681
16	17342	10.223828338161	685
16	17355	10.253828338161	689
16	17704	10.283828338161	693
16	17749	10.313828338161	697
16	17757	10.343828338161	701
16	18098	10.373828338161	705
16	18236	10.403828338161	709
16	18244	10.433828338161	713
16	18479	10.463828338161	717
16	18611	10.493828338161	721
16	18656	10.523828338161	725
16	18669	10.553828338161	729
16	18996	10.583828338161	733
16	19041	10.613828338161	737
16	19049	10.643828338161	741
16	19381	10.673828338161	745
16	19519	10.703828338161	749
16	19527	10.733828338161	753
16	19762	10.763828338161	757
16	19894	10.793828338161	761
16	19939	10.823828338161	765
16	19952	10.853828338161	769
16	20275	10.883828338161	773
16	20320	10.913828338161	777
[...]
14	220884	43.75006282191	0.001
14	221472	43.80006282191	0.002
14	221496	43.85006282191	0.001
14	222063	43.90006282191	0.002
14	222085	43.95006282191	0.001
14	222728	44.00006282191	0.002
14	222750	44.05006282191	0.001
14	223306	44.10006282191	0.002
14	223330	44.15006282191	0.001
14	223897	44.20006282191	0.002
14	223919	44.25006282191	0.001
14	224578	44.30006282191	0.002
14	224600	44.35006282191	0.001
14	225156	44.40006282191	0.002
14	225180	44.45006282191	0.001
14	225747	44.50006282191	0.002
14	225769	44.55006282191	0.001
14	226417	44.60006282191	0.002
14	226439	44.65006282191	0.001
14	227027	44.70006282191	0.002
14	227051	44.75006282191	0.001
14	227607	44.80006282191	0.002
14	227629	44.85006282191	0.001
14	228261	44.90006282191	0.002
14	228283	44.95006282191	0.001
14	228855	45.00006282191	0.002
14	228879	45.05006282191	0.001
14	229456	45.10006282191	0.002
14	229478	45.15006282191	0.001
14	230137	45.20006282191	0.002
14	230159	45.25006282191	0.001
14	230731	45.30006282191	0.002
14	230755	45.35006282191	0.001
14	231327	45.40006282191	0.002
14	231349	45.45006282191	0.001
14	231992	45.50006282191	0.002
14	232014	45.55006282191	0.001
14	232586	45.60006282191	0.002
14	232610	45.65006282191	0.001
14	233209	45.70006282191	0.002
14	233231	45.75006282191	0.001
14	233863	45.80006282191	0.002
14	233885	45.85006282191	0.001
14	234457	45.90006282191	0.002
14	234481	45.95006282191	0.001
14	235048	46.00006282191	0.002
14	235070	46.05006282191	0.001
14	235718	46.10006282191	0.002
14	235740	46.15006282191	0.001
14	236296	46.20006282191	0.002
14	236320	46.25006282191	0.001
14	236892	46.30006282191	0.002
14	236914	46.35006282191	0.001
14	237557	46.40006282191	0.002
14	237579	46.45006282191	0.001
14	238146	46.50006282191	0.002
14	238170	46.55006282191	0.001
14	238742	46.60006282191	0.002
14	238764	46.65006282191	0.001
14	239423	46.70006282191	0.002
14	239445	46.75006282191	0.001
14	240017	46.80006282191	0.002
14	240041	46.85006282191	0.001
14	240608	46.90006282191	0.002
14	240630	46.95006282191	0.001
14	241273	47.00006282191	0.002
14	241295	47.05006282191	0.001
14	241846	47.10006282191	0.002
14	241870	47.15006282191	0.001
14	242453	47.20006282191	0.002
14	242475	47.25006282191	0.001
14	243118	47.30006282191	0.002
14	243140	47.35006282191	0.001
14	243696	47.40006282191	0.002
14	243720	47.45006282191	0.001
14	244287	47.50006282191	0.002
14	244309	47.55006282191	0.001
14	244957	47.60006282191	0.002
14	244979	47.65006282191	0.001
14	245540	47.70006282191	0.002
14	245564	47.75006282191	0.001
14	246131	47.80006282191	0.002
14	246153	47.85006282191	0.001
14	246790	47.90006282191	0.002
14	246812	47.95006282191	0.001
14	247368	48.00006282191	0.002
14	247392	48.05006282191	0.001
14	247948	48.10006282191	0.002
14	247970	48.15006282191	0.001
14	248634	48.20006282191	0.002
14	248656	48.25006282191	0.001
14	249207	48.30006282191	0.002
14	249231	48.35006282191	0.001
14	249814	48.40006282191	0.002
14	249836	48.45006282191	0.001
14	250484	48.50006282191	0.002
14	250506	48.55006282191	0.001
14	251078	48.60006282191	0.002
14	251102	48.65006282191	0.001
14	251674	48.70006282191	0.002
14	251696	48.75006282191	0.001
14	252355	48.80006282191	0.002
14	252377	48.85006282191	0.001
14	252933	48.90006282191	0.002
14	252957	48.95006282191	0.001
14	253545	49.00006282191	0.002
14	253567	49.05006282191	0.001
14	254231	49.10006282191	0.002
14	254253	49.15006282191	0.001
14	254820	49.20006282191	0.002
14	254844	49.25006282191	0.001
14	255389	49.30006282191	0.002
14	255411	49.35006282191	0.001
14	256070	49.40006282191	0.002
14	256092	49.45006282191	0.001
14	256664	49.50006282191	0.002
14	256688	49.55006282191	0.001
14	257287	49.60006282191	0.002
14	257309	49.65006282191	0.001
14	257968	49.70006282191	0.002
14	257990	49.75006282191	0.001
14	258551	49.80006282191	0.002
14	258575	49.85006282191	0.001
14	259147	49.90006282191	0.002
14	259169	49.95006282191	0.001
14	259812	50.00006282191	0.002
14	259834	50.05006282191	0.001
14	260406	50.10006282191	0.002
14	260430	50.15006282191	0.001
14	260997	50.20006282191	0.002
14	261019	50.25006282191	0.001
14	261683	50.30006282191	0.002
14	261705	50.35006282191	0.001
14	262277	50.40006282191	0.002
14	262301	50.45006282191	0.001
14	262857	50.50006282191	0.002
14	262879	50.55006282191	0.001
14	263527	50.60006282191	0.002
14	263549	50.65006282191	0.001
14	264121	50.70006282191	0.002
14	264145	50.75006282191	0.001
14	264712	50.80006282191	0.002
14	264734	50.85006282191	0.001
14	265393	50.90006282191	0.002
14	265415	50.95006282191	0.001
14	265998	51.00006282191	0.002
14	266022	51.05006282191	0.001
14	266605	51.10006282191	0.002
14	266627	51.15006282191	0.001
14	267275	51.20006282191	0.002
14	267297	51.25006282191	0.001
14	267880	51.30006282191	0.002
14	267904	51.35006282191	0.001
14	268471	51.40006282191	0.002
14	268493	51.45006282191	0.001
14	269141	51.50006282191	0.002
14	269163	51.55006282191	0.001
14	269724	51.60006282191	0.002
14	269748	51.65006282191	0.001
14	270336	51.70006282191	0.002
14	270358	51.75006282191	0.001
14	271001	51.80006282191	0.002
14	271023	51.85006282191	0.001
14	271606	51.90006282191	0.002
14	271630	51.95006282191	0.001
14	272213	52.00006282191	0.002
14	272235	52.05006282191	0.001
14	272867	52.10006282191	0.002
14	272889	52.15006282191	0.001
14	273445	52.20006282191	0.002
14	273469	52.25006282191	0.001
14	274057	52.30006282191	0.002
14	274079	52.35006282191	0.001
14	274738	52.40006282191	0.002
14	274760	52.45006282191	0.001
14	275332	52.50006282191	0.002
14	275356	52.55006282191	0.001
14	275944	52.60006282191	0.002
14	275966	52.65006282191	0.001
14	276625	52.70006282191	0.002
14	276647	52.75006282191	0.001
14	277219	52.80006282191	0.002
14	277243	52.85006282191	0.001
14	277804	52.90006282191	0.002
14	277826	52.95006282191	0.001
14	278469	53.00006282191	0.002
14	278491	53.05006282191	0.001
14	279058	53.10006282191	0.002
14	279082	53.15006282191	0.001
14	279665	53.20006282191	0.002
14	279687	53.25006282191	0.001
14	280346	53.30006282191	0.002
14	280368	53.35006282191	0.001
14	280967	53.40006282191	0.002
14	280991	53.45006282191	0.001
14	281552	53.50006282191	0.002
14	281574	53.55006282191	0.001
14	282201	53.60006282191	0.002
14	282223	53.65006282191	0.001
14	282795	53.70006282191	0.002
14	282819	53.75006282191	0.001
14	283375	53.80006282191	0.002
14	283397	53.85006282191	0.001
14	284040	53.90006282191	0.002
14	284062	53.95006282191	0.001
14	284639	54.00006282191	0.002
14	284663	54.05006282191	0.001
14	285219	54.10006282191	0.002
14	285241	54.15006282191	0.001
14	285884	54.20006282191	0.002
14	285906	54.25006282191	0.001
14	286489	54.30006282191	0.002
14	286513	54.35006282191	0.001
14	287096	54.40006282191	0.002
14	287118	54.45006282191	0.001
14	287782	54.50006282191	0.002
14	287804	54.55006282191	0.001
14	288371	54.60006282191	0.002
14	288395	54.65006282191	0.001
14	288962	54.70006282191	0.002
14	288984	54.75006282191	0.001
14	289627	54.80006282191	0.002
14	289649	54.85006282191	0.001
14	290221	54.90006282191	0.002
14	290245	54.95006282191	0.001
14	290828	55.00006282191	0.002
14	290850	55.05006282191	0.001
14	291509	55.10006282191	0.002
14	291531	55.15006282191	0.001
14	292087	55.20006282191	0.002
14	292111	55.25006282191	0.001
14	292694	55.30006282191	0.002
14	292716	55.35006282191	0.001
14	293375	55.40006282191	0.002
14	293397	55.45006282191	0.001
14	293980	55.50006282191	0.002
14	294004	55.55006282191	0.001
14	294565	55.60006282191	0.002
14	294587	55.65006282191	0.001
14	295230	55.70006282191	0.002
14	295252	55.75006282191	0.001
14	295819	55.80006282191	0.002
14	295843	55.85006282191	0.001
14	296410	55.90006282191	0.002
14	296432	55.95006282191	0.001
14	297075	56.00006282191	0.002
14	297097	56.05006282191	0.001
14	297669	56.10006282191	0.002
14	297693	56.15006282191	0.001
14	298265	56.20006282191	0.002
14	298287	56.25006282191	0.001
14	298946	56.30006282191	0.002
14	298968	56.35006282191	0.001
14	299556	56.40006282191	0.002
14	299580	56.45006282191	0.001
14	300152	56.50006282191	0.002
14	300174	56.55006282191	0.001
14	300833	56.60006282191	0.002
14	300855	56.65006282191	0.001
14	301422	56.70006282191	0.002
14	301446	56.75006282191	0.001
14	302029	56.80006282191	0.002
14	302051	56.85006282191	0.001
14	302710	56.90006282191	0.002
14	302732	56.95006282191	0.001
14	303315	57.00006282191	0.002
14	303339	57.05006282191	0.001
14	303906	57.10006282191	0.002
14	303928	57.15006282191	0.001
14	304576	57.20006282191	0.002
14	304598	57.25006282191	0.001
14	305181	57.30006282191	0.002
14	305205	57.35006282191	0.001
14	305788	57.40006282191	0.002
14	305810	57.45006282191	0.001
14	306469	57.50006282191	0.002
14	306491	57.55006282191	0.001
14	307063	57.60006282191	0.002
14	307087	57.65006282191	0.001
14	307638	57.70006282191	0.002
14	307660	57.75006282191	0.001
14	308308	57.80006282191	0.002
14	308330	57.85006282191	0.001
14	308886	57.90006282191	0.002
14	308910	57.95006282191	0.001
14	309498	58.00006282191	0.002
14	309520	58.05006282191	0.001
14	310179	58.10006282191	0.002
14	310201	58.15006282191	0.001
14	310762	58.20006282191	0.002
14	310786	58.25006282191	0.001
14	311358	58.30006282191	0.002
14	311380	58.35006282191	0.001
14	312007	58.40006282191	0.002
14	312029	58.45006282191	0.001
14	312590	58.50006282191	0.002
14	312614	58.55006282191	0.001
14	313197	58.60006282191	0.002
14	313219	58.65006282191	0.001
14	313878	58.70006282191	0.002
14	313900	58.75006282191	0.001
14	314472	58.80006282191	0.002
14	314496	58.85006282191	0.001
14	315057	58.90006282191	0.002
14	315079	58.95006282191	0.001
14	315743	59.00006282191	0.002
14	315765	59.05006282191	0.001
14	316337	59.10006282191	0.002
14	316361	59.15006282191	0.001
14	316922	59.20006282191	0.002
14	316944	59.25006282191	0.001
14	317587	59.30006282191	0.002
14	317609	59.35006282191	0.001
14	318176	59.40006282191	0.002
14	318200	59.45006282191	0.001
14	318772	59.50006282191	0.002
14	318794	59.55006282191	0.001
14	319421	59.60006282191	0.002
14	319443	59.65006282191	0.001
14	320010	59.70006282191	0.002
14	320034	59.75006282191	0.001
14	320617	59.80006282191	0.002
14	320639	59.85006282191	0.001
14	321266	59.90006282191	0.002
14	321288	59.95006282191	0.001
14	321844	60.00006282191	0.002
14	321868	60.05006282191	0.001
14	322440	60.10006282191	0.002
14	322462	60.15006282191	0.001
14	323094	60.20006282191	0.002
14	323116	60.25006282191	0.001
14	323666	60.30006282191	0.002
14	323690	60.35006282191	0.001
14	324305	60.40006282191	0.002
14	324327	60.45006282191	0.001
14	324991	60.50006282191	0.002
14	325013	60.55006282191	0.001
14	325558	60.60006282191	0.002
14	325582	60.65006282191	0.001
14	326165	60.70006282191	0.002
14	326187	60.75006282191	0.001
14	326835	60.80006282191	0.002
14	326857	60.85006282191	0.001
14	327408	60.90006282191	0.002
14	327432	60.95006282191	0.001
14	327999	61.00006282191	0.002
14	328021	61.05006282191	0.001
14	328680	61.10006282191	0.002
14	328702	61.15006282191	0.001
14	329269	61.20006282191	0.002
14	329293	61.25006282191	0.001
14	329865	61.30006282191	0.002
14	329887	61.35006282191	0.001
14	330546	61.40006282191	0.002
14	330568	61.45006282191	0.001
14	331145	61.50006282191	0.002
14	331169	61.55006282191	0.001
14	331752	61.60006282191	0.002
14	331774	61.65006282191	0.001
14	332432	61.70006282191	0.002
14	332449	61.75006282191	0.001
14	332813	61.80006282191	0.002
14	332834	61.85006282191	0.001
14	333229	61.90006282191	0.002
14	333246	61.95006282191	0.001
14	333707	62.00006282191	0.002
14	333724	62.05006282191	0.001
14	334101	62.10006282191	0.002
14	334122	62.15006282191	0.001
14	334530	62.20006282191	0.002
14	334547	62.25006282191	0.001
14	335034	62.30006282191	0.002
14	335051	62.35006282191	0.001
14	335415	62.40006282191	0.002
14	335436	62.45006282191	0.001
14	335844	62.50006282191	0.002
14	335861	62.55006282191	0.001
14	336313	62.60006282191	0.002
14	336330	62.65006282191	0.001
14	336707	62.70006282191	0.002
14	336728	62.75006282191	0.001
14	337136	62.80006282191	0.002
14	337153	62.85006282191	0.001
14	337614	62.90006282191	0.002
14	337631	62.95006282191	0.001
14	337999	63.00006282191	0.002
14	338020	63.05006282191	0.001
14	338428	63.10006282191	0.002
14	338445	63.15006282191	0.001
14	338906	63.20006282191	0.002
14	338923	63.25006282191	0.001
14	339300	63.30006282191	0.002
14	339321	63.35006282191	0.001
14	339729	63.40006282191	0.002
14	339746	63.45006282191	0.001
14	340207	63.50006282191	0.002
14	340224	63.55006282191	0.001
14	340601	63.60006282191	0.002
14	340622	63.65006282191	0.001
14	341012	63.70006282191	0.002
14	341029	63.75006282191	0.001
14	341490	63.80006282191	0.002
14	341507	63.85006282191	0.001
14	341871	63.90006282191	0.002
14	341892	63.95006282191	0.001
14	342282	64.00006282191	0.002
14	342299	64.05006282191	0.001
14	342773	64.10006282191	0.002
14	342790	64.15006282191	0.001
14	343167	64.20006282191	0.002
14	343188	64.25006282191	0.001
14	343583	64.30006282191	0.002
14	343600	64.35006282191	0.001
14	344074	64.40006282191	0.002
14	344091	64.45006282191	0.001
14	344459	64.50006282191	0.002
14	344480	64.55006282191	0.001
14	344875	64.60006282191	0.002
14	344892	64.65006282191	0.001
14	345366	64.70006282191	0.002
14	345379	64.75006282191	0.001
14	345608	64.80006282191	0.002
14	345624	64.85006282191	0.001
14	345868	64.90006282191	0.002
14	345881	64.95006282191	0.001
14	346153	65.00006282191	0.002
14	346166	65.05006282191	0.001
14	346405	65.10006282191	0.002
14	346421	65.15006282191	0.001
14	346675	65.20006282191	0.002
14	346688	65.25006282191	0.001
14	346970	65.30006282191	0.002
14	346983	65.35006282191	0.001
14	347222	65.40006282191	0.002
14	347238	65.45006282191	0.001
14	347492	65.50006282191	0.002
14	347505	65.55006282191	0.001
14	347787	65.60006282191	0.002
14	347800	65.65006282191	0.001
14	348029	65.70006282191	0.002
14	348045	65.75006282191	0.001
14	348289	65.80006282191	0.002
14	348302	65.85006282191	0.001
14	348594	65.90006282191	0.002
14	348607	65.95006282191	0.001
14	348836	66.00006282191	0.002
14	348852	66.05006282191	0.001
14	349096	66.10006282191	0.002
14	349109	66.15006282191	0.001
14	349401	66.20006282191	0.002
14	349414	66.25006282191	0.001
14	349643	66.30006282191	0.002
14	349659	66.35006282191	0.001
14	349923	66.40006282191	0.002
14	349936	66.45006282191	0.001
14	350228	66.50006282191	0.002
14	350241	66.55006282191	0.001
14	350470	66.60006282191	0.002
14	350486	66.65006282191	0.001
14	350740	66.70006282191	0.002
14	350753	66.75006282191	0.001
14	351035	66.80006282191	0.002
14	351048	66.85006282191	0.001
14	351267	66.90006282191	0.002
14	351283	66.95006282191	0.001
14	351527	67.00006282191	0.002
14	351540	67.05006282191	0.001
14	351822	67.10006282191	0.002
14	351835	67.15006282191	0.001
14	352054	67.20006282191	0.002
14	352070	67.25006282191	0.001
14	352334	67.30006282191	0.002
14	352347	67.35006282191	0.001
14	352629	67.40006282191	0.002
14	352642	67.45006282191	0.001
14	352871	67.50006282191	0.002
14	352887	67.55006282191	0.001
14	353141	67.60006282191	0.002
14	353154	67.65006282191	0.001
14	353446	67.70006282191	0.002
14	353456	67.75006282191	0.001
14	353579	67.80006282191	0.002
14	353590	67.85006282191	0.001
14	353734	67.90006282191	0.002
14	353742	67.95006282191	0.001
14	353887	68.00006282191	0.002
14	353897	68.05006282191	0.001
14	354020	68.10006282191	0.002
14	354031	68.15006282191	0.001
14	354175	68.20006282191	0.002
14	354183	68.25006282191	0.001
14	354328	68.30006282191	0.002
14	354338	68.35006282191	0.001
14	354461	68.40006282191	0.002
14	354472	68.45006282191	0.001
14	354616	68.50006282191	0.002
14	354624	68.55006282191	0.001
14	354769	68.60006282191	0.002
14	354779	68.65006282191	0.001
14	354902	68.70006282191	0.002
14	354913	68.75006282191	0.001
14	355050	68.80006282191	0.002
14	355058	68.85006282191	0.001
14	355203	68.90006282191	0.002
14	355213	68.95006282191	0.001
14	355336	69.00006282191	0.002
14	355347	69.05006282191	0.001
14	355491	69.10006282191	0.002
14	355499	69.15006282191	0.001
14	355644	69.20006282191	0.002
14	355654	69.25006282191	0.001
14	355777	69.30006282191	0.002
14	355788	69.35006282191	0.001
14	355932	69.40006282191	0.002
14	355940	69.45006282191	0.001
14	356085	69.50006282191	0.002
14	356095	69.55006282191	0.001
14	356211	69.60006282191	0.002
14	356222	69.65006282191	0.001
14	356366	69.70006282191	0.002
14	356374	69.75006282191	0.001
14	356519	69.80006282191	0.002
14	356529	69.85006282191	0.001
14	356652	69.90006282191	0.002
14	356663	69.95006282191	0.001
14	356807	70.00006282191	0.002
14	356815	70.05006282191	0.001
14	356960	70.10006282191	0.002
14	356970	70.15006282191	0.001
14	357093	70.20006282191	0.002
14	357104	70.25006282191	0.001
14	357248	70.30006282191	0.002
14	357256	70.35006282191	0.001
14	357401	70.40006282191	0.002
14	357411	70.45006282191	0.001
14	357527	70.50006282191	0.002
14	357533	70.55006282191	0.001
14	357592	70.60006282191	0.002
14	357596	70.65006282191	0.001
14	357642	70.70006282191	0.002
14	357648	70.75006282191	0.001
14	357692	70.80006282191	0.002
14	357698	70.85006282191	0.001
14	357757	70.90006282191	0.002
14	357761	70.95006282191	0.001
14	357807	71.00006282191	0.002
14	357813	71.05006282191	0.001
14	357857	71.10006282191	0.002
14	357863	71.15006282191	0.001
14	357922	71.20006282191	0.002
14	357926	71.25006282191	0.001
14	357972	71.30006282191	0.002
14	357978	71.35006282191	0.001
14	358022	71.40006282191	0.002
14	358028	71.45006282191	0.001
14	358087	71.50006282191	0.002
14	358091	71.55006282191	0.001
14	358137	71.60006282191	0.002
14	358143	71.65006282191	0.001
14	358187	71.70006282191	0.002
14	358193	71.75006282191	0.001
14	358252	71.80006282191	0.002
14	358256	71.85006282191	0.001
14	358302	71.90006282191	0.002
14	358308	71.95006282191	0.001
14	358352	72.00006282191	0.002
14	358358	72.05006282191	0.001
14	358417	72.10006282191	0.002
14	358421	72.15006282191	0.001
14	358467	72.20006282191	0.002
14	358473	72.25006282191	0.001
14	358517	72.30006282191	0.002
14	358523	72.35006282191	0.001
14	358582	72.40006282191	0.002
14	358586	72.45006282191	0.001
14	358632	72.50006282191	0.002
14	358638	72.55006282191	0.001
14	358682	72.60006282191	0.002
14	358688	72.65006282191	0.001
14	358747	72.70006282191	0.002
14	358751	72.75006282191	0.001
14	358797	72.80006282191	0.002
14	358803	72.85006282191	0.001
14	358847	72.90006282191	0.002
14	358853	72.95006282191	0.001
14	358912	73.00006282191	0.002
14	358916	73.05006282191	0.001
14	358962	73.10006282191	0.002
14	358968	73.15006282191	0.001
14	359012	73.20006282191	0.002
14	359018	73.25006282191	0.001
14	359077	73.30006282191	0.002
14	359081	73.35006282191	0.001
14	359127	73.40006282191	0.002
14	359133	73.45006282191	0.001
14	359177	73.50006282191	0.002
14	359183	73.55006282191	0.001
14	359241	73.60006282191	0.002
14	359242	73.65006282191	0.001
14	359243	73.70006282191	0.002
14	359244	73.75006282191	0.001
14	359245	73.80006282191	0.002
14	359246	73.85006282191	0.001
14	359247	73.90006282191	0.002
14	359248	73.95006282191	0.001
14	359249	74.00006282191	0.002
14	359250	74.05006282191	0.001
14	359251	74.10006282191	0.002
14	359252	74.15006282191	0.001
14	359253	74.20006282191	0.002
14	359254	74.25006282191	0.001
14	359255	74.30006282191	0.002
14	359256	74.35006282191	0.001
14	359257	74.40006282191	0.002
14	359258	74.45006282191	0.001
14	359259	74.50006282191	0.002
14	359260	74.55006282191	0.001
14	359261	74.60006282191	0.002
14	359262	74.65006282191	0.001
14	359263	74.70006282191	0.002
14	359264	74.75006282191	0.001
14	359265	74.80006282191	0.002
14	359266	74.85006282191	0.001
14	359267	74.90006282191	0.002
14	359268	74.95006282191	0.001
14	359269	75.00006282191	0.002
14	359270	75.05006282191	0.001
14	359271	75.10006282191	0.002
14	359272	75.15006282191	0.001
14	359273	75.20006282191	0.002
14	359274	75.25006282191	0.001
14	359275	75.30006282191	0.002
14	359276	75.35006282191	0.001
14	359277	75.40006282191	0.002
14	359278	75.45006282191	0.001
14	359279	75.50006282191	0.002
14	359280	75.55006282191	0.001
14	359281	75.60006282191	0.002
14	359282	75.65006282191	0.001
14	359283	75.70006282191	0.002
14	359284	75.75006282191	0.001
14	359285	75.80006282191	0.002
14	359286	75.85006282191	0.001
14	359287	75.90006282191	0.002
14	359288	75.95006282191	0.001
