version 2
run VoIP-50ms_440B-0-20160923-14:15:26-14706
attr configname VoIP-50ms_440B
attr datetime 20160923-14:15:26
attr experiment VoIP-50ms_440B
attr inifile omnetpp.ini
attr iterationvars ""
attr iterationvars2 $repetition=0
attr measurement ""
attr network SymScenerio
attr processid 14706
attr repetition 0
attr replication #0
attr resultdir results
attr runnumber 0
attr seedset 0
param **.coreDebug false
param **.debug false
param *.**.nic.mac1609_4.bitrate 18Mbps
param *.**.nic.mac1609_4.txPower 20mW
param *.**.nic.mac1609_4.useServiceChannel true
param *.**.nic.phy80211p.analogueModels "xmldoc(\"config.xml\")"
param *.**.nic.phy80211p.decider "xmldoc(\"config.xml\")"
param *.**.nic.phy80211p.sensitivity -89dBm
param *.**.nic.phy80211p.thermalNoise -110dBm
param *.**.nic.phy80211p.usePropagationDelay true
param *.**.nic.phy80211p.useThermalNoise true
param *.annotations.draw false
param *.connectionManager.alpha 2.0
param *.connectionManager.carrierFrequency "5.890e9 Hz"
param *.connectionManager.pMax 20mW
param *.connectionManager.sat -89dBm
param *.connectionManager.sendDirect true
param *.manager.autoShutdown true
param *.manager.host "\"localhost\""
param *.manager.launchConfig "xmldoc(\"map.launchd.xml\")"
param *.manager.margin 25
param *.manager.moduleDisplayString "\"\""
param *.manager.moduleName "\"node\""
param *.manager.moduleType "\"symulacja.veins.nodes.Car\""
param *.manager.port 9999
param *.manager.updateInterval 0.1s
param *.node[*].appl.beaconInterval 1s
param *.node[*].appl.beaconPriority 3
param *.node[*].appl.dataOnSch false
param *.node[*].appl.dataPriority 2
param *.node[*].appl.debug false
param *.node[*].appl.maxOffset 0.005s
param *.node[*].appl.sendBeacons false
param *.node[*].appl.sendData true
param *.node[*].appl.sendVoIP true
param *.node[*].appl.voipInterval 0.050s
param *.node[*].appl.voipLengthBits 3520bit
param *.node[*].appl.voipOnSch true
param *.node[*].appl.voipPriority 3
param *.node[*].applType "\"Sym11p\""
param *.node[*].veinsmobility.x 0
param *.node[*].veinsmobility.y 0
param *.node[*].veinsmobility.z 1.895
param *.node[*].veinsmobilityType "\"symulacja.veins.modules.mobility.traci.TraCIMobility\""
param *.playgroundSizeX 9000m
param *.playgroundSizeY 9000m
param *.playgroundSizeZ 50m
param *.rsu[*].appl.beaconInterval 1s
param *.rsu[*].appl.beaconPriority 3
param *.rsu[*].appl.dataOnSch false
param *.rsu[*].appl.dataPriority 2
param *.rsu[*].appl.debug false
param *.rsu[*].appl.headerLength "256 bit"
param *.rsu[*].appl.maxOffset 0.005s
param *.rsu[*].appl.sendBeacons false
param *.rsu[*].appl.sendData false
param *.rsu[*].appl.sendVoIP false
param *.rsu[*].applType "\"SymRSU11p\""
param *.rsu[0].mobility.x 2160
param *.rsu[0].mobility.y 3100
param *.rsu[0].mobility.z 3
param *.world.use2D false
param *.world.useTorus false

vector 14  SymScenerio.rsu[0].nic.mac1609_4  "Interwały kanałów"  ETV
vector 23  SymScenerio.node[0].veinsmobility  posx  ETV
vector 24  SymScenerio.node[0].veinsmobility  posy  ETV
vector 22  SymScenerio.node[0].nic.mac1609_4  "Interwały kanałów"  ETV
vector 25  SymScenerio.node[0].veinsmobility  speed  ETV
vector 26  SymScenerio.node[0].veinsmobility  acceleration  ETV
vector 27  SymScenerio.node[0].veinsmobility  co2emission  ETV
vector 15  SymScenerio.node[0].appl  "TX Packets"  ETV
vector 16  SymScenerio.node[0].appl  "TX Total"  ETV
vector 17  SymScenerio.node[0].appl  Pakietyzacja  ETV
vector 5  SymScenerio.rsu[0].appl  nodeALL:vector  ETV
attr source  nodeALL
attr title  "Opoznienia ALL, vector"
vector 9  SymScenerio.rsu[0].appl  "RX Packet"  ETV
vector 0  SymScenerio.rsu[0].appl  node0:vector  ETV
attr source  node0
attr title  "Opoznienia node0, vector"
vector 36  SymScenerio.node[1].veinsmobility  posx  ETV
vector 37  SymScenerio.node[1].veinsmobility  posy  ETV
vector 35  SymScenerio.node[1].nic.mac1609_4  "Interwały kanałów"  ETV
vector 28  SymScenerio.node[1].appl  "TX Packets"  ETV
vector 29  SymScenerio.node[1].appl  "TX Total"  ETV
vector 30  SymScenerio.node[1].appl  Pakietyzacja  ETV
vector 1  SymScenerio.rsu[0].appl  node1:vector  ETV
attr source  node1
attr title  "Opoznienia node1, vector"
vector 38  SymScenerio.node[1].veinsmobility  speed  ETV
vector 39  SymScenerio.node[1].veinsmobility  acceleration  ETV
vector 40  SymScenerio.node[1].veinsmobility  co2emission  ETV
vector 49  SymScenerio.node[2].veinsmobility  posx  ETV
vector 50  SymScenerio.node[2].veinsmobility  posy  ETV
vector 48  SymScenerio.node[2].nic.mac1609_4  "Interwały kanałów"  ETV
vector 51  SymScenerio.node[2].veinsmobility  speed  ETV
vector 52  SymScenerio.node[2].veinsmobility  acceleration  ETV
vector 53  SymScenerio.node[2].veinsmobility  co2emission  ETV
vector 41  SymScenerio.node[2].appl  "TX Packets"  ETV
vector 42  SymScenerio.node[2].appl  "TX Total"  ETV
vector 43  SymScenerio.node[2].appl  Pakietyzacja  ETV
vector 2  SymScenerio.rsu[0].appl  node2:vector  ETV
attr source  node2
attr title  "Opoznienia node2, vector"
vector 62  SymScenerio.node[3].veinsmobility  posx  ETV
vector 63  SymScenerio.node[3].veinsmobility  posy  ETV
vector 61  SymScenerio.node[3].nic.mac1609_4  "Interwały kanałów"  ETV
vector 64  SymScenerio.node[3].veinsmobility  speed  ETV
vector 65  SymScenerio.node[3].veinsmobility  acceleration  ETV
vector 66  SymScenerio.node[3].veinsmobility  co2emission  ETV
vector 54  SymScenerio.node[3].appl  "TX Packets"  ETV
vector 55  SymScenerio.node[3].appl  "TX Total"  ETV
vector 56  SymScenerio.node[3].appl  Pakietyzacja  ETV
vector 3  SymScenerio.rsu[0].appl  node3:vector  ETV
attr source  node3
attr title  "Opoznienia node3, vector"
vector 75  SymScenerio.node[4].veinsmobility  posx  ETV
vector 76  SymScenerio.node[4].veinsmobility  posy  ETV
vector 74  SymScenerio.node[4].nic.mac1609_4  "Interwały kanałów"  ETV
vector 67  SymScenerio.node[4].appl  "TX Packets"  ETV
vector 68  SymScenerio.node[4].appl  "TX Total"  ETV
vector 69  SymScenerio.node[4].appl  Pakietyzacja  ETV
vector 4  SymScenerio.rsu[0].appl  node4:vector  ETV
attr source  node4
attr title  "Opoznienia node4, vector"
vector 77  SymScenerio.node[4].veinsmobility  speed  ETV
vector 78  SymScenerio.node[4].veinsmobility  acceleration  ETV
vector 79  SymScenerio.node[4].veinsmobility  co2emission  ETV
17	27	0.561827398394	1.002
17	45	0.611827398394	1.002
17	62	0.661827398394	1.002
17	80	0.711827398394	1.002
17	97	0.761827398394	1.002
17	115	0.811827398394	1.002
17	132	0.861827398394	1.002
17	150	0.911827398394	1.002
17	167	0.961827398394	1.002
17	185	1.011827398394	1.002
17	202	1.061827398394	1.002
17	220	1.111827398394	1.002
17	237	1.161827398394	1.002
17	255	1.211827398394	1.002
17	272	1.261827398394	1.002
17	290	1.311827398394	1.002
17	307	1.361827398394	1.002
17	325	1.411827398394	1.002
17	342	1.461827398394	1.002
17	360	1.511827398394	1.002
17	377	1.561827398394	1.002
17	395	1.611827398394	1.002
17	412	1.661827398394	1.002
17	430	1.711827398394	1.002
17	447	1.761827398394	1.002
17	465	1.811827398394	1.002
17	482	1.861827398394	1.002
17	500	1.911827398394	1.002
17	517	1.961827398394	1.002
17	535	2.011827398394	1.002
17	552	2.061827398394	1.002
17	570	2.111827398394	1.002
17	587	2.161827398394	1.002
17	605	2.211827398394	1.002
17	622	2.261827398394	1.002
17	640	2.311827398394	1.002
17	657	2.361827398394	1.002
17	675	2.411827398394	1.002
17	692	2.461827398394	1.002
17	710	2.511827398394	1.002
17	727	2.561827398394	1.002
17	745	2.611827398394	1.002
17	762	2.661827398394	1.002
17	780	2.711827398394	1.002
17	797	2.761827398394	1.002
17	815	2.811827398394	1.002
17	832	2.861827398394	1.002
17	850	2.911827398394	1.002
17	867	2.961827398394	1.002
17	885	3.011827398394	1.002
17	902	3.061827398394	1.002
17	920	3.111827398394	1.002
17	965	3.161827398394	1.002
17	992	3.211827398394	1.002
17	1056	3.261827398394	1.002
17	1083	3.311827398394	1.002
17	1147	3.361827398394	1.002
17	1174	3.411827398394	1.002
17	1238	3.461827398394	1.002
17	1265	3.511827398394	1.002
17	1329	3.561827398394	1.002
17	1356	3.611827398394	1.002
17	1420	3.661827398394	1.002
17	1447	3.711827398394	1.002
17	1511	3.761827398394	1.002
17	1538	3.811827398394	1.002
17	1602	3.861827398394	1.002
17	1629	3.911827398394	1.002
17	1693	3.961827398394	1.002
17	1720	4.011827398394	1.002
17	1784	4.061827398394	1.002
17	1811	4.111827398394	1.002
17	1875	4.161827398394	1.002
17	1902	4.211827398394	1.002
17	1966	4.261827398394	1.002
17	1993	4.311827398394	1.002
17	2057	4.361827398394	1.002
17	2084	4.411827398394	1.002
17	2148	4.461827398394	1.002
17	2175	4.511827398394	1.002
17	2239	4.561827398394	1.002
17	2266	4.611827398394	1.002
17	2330	4.661827398394	1.002
17	2357	4.711827398394	1.002
17	2421	4.761827398394	1.002
17	2448	4.811827398394	1.002
17	2512	4.861827398394	1.002
17	2539	4.911827398394	1.002
17	2603	4.961827398394	1.002
17	2630	5.011827398394	1.002
17	2694	5.061827398394	1.002
17	2721	5.111827398394	1.002
17	2785	5.161827398394	1.002
17	2812	5.211827398394	1.002
17	2876	5.261827398394	1.002
17	2903	5.311827398394	1.002
17	2967	5.361827398394	1.002
17	2994	5.411827398394	1.002
17	3058	5.461827398394	1.002
17	3085	5.511827398394	1.002
17	3149	5.561827398394	1.002
17	3176	5.611827398394	1.002
17	3240	5.661827398394	1.002
17	3267	5.711827398394	1.002
17	3331	5.761827398394	1.002
17	3358	5.811827398394	1.002
17	3422	5.861827398394	1.002
17	3449	5.911827398394	1.002
17	3513	5.961827398394	1.002
17	3540	6.011827398394	1.002
17	3604	6.061827398394	1.002
17	3631	6.111827398394	1.002
17	3714	6.161827398394	1.002
17	3748	6.211827398394	1.002
17	3831	6.261827398394	1.002
17	3865	6.311827398394	1.002
17	3948	6.361827398394	1.002
17	3982	6.411827398394	1.002
17	4065	6.461827398394	1.002
17	4099	6.511827398394	1.002
17	4182	6.561827398394	1.002
17	4216	6.611827398394	1.002
17	4299	6.661827398394	1.002
17	4333	6.711827398394	1.002
17	4416	6.761827398394	1.002
17	4450	6.811827398394	1.002
17	4533	6.861827398394	1.002
17	4594	6.911827398394	1.002
17	4704	6.961827398394	1.002
17	4765	7.011827398394	1.002
17	4865	7.061827398394	1.002
17	4926	7.111827398394	1.002
17	5026	7.161827398394	1.002
17	5087	7.211827398394	1.002
17	5197	7.261827398394	1.002
17	5258	7.311827398394	1.002
17	5368	7.361827398394	1.002
17	5429	7.411827398394	1.002
17	5539	7.461827398394	1.002
17	5600	7.511827398394	1.002
17	5710	7.561827398394	1.002
17	5771	7.611827398394	1.002
17	5881	7.661827398394	1.002
17	5942	7.711827398394	1.002
17	6052	7.761827398394	1.002
17	6113	7.811827398394	1.002
17	6223	7.861827398394	1.002
17	6284	7.911827398394	1.002
17	6394	7.961827398394	1.002
17	6455	8.011827398394	1.002
17	6565	8.061827398394	1.002
17	6626	8.111827398394	1.002
17	6736	8.161827398394	1.002
17	6797	8.211827398394	1.002
17	6907	8.261827398394	1.002
17	6968	8.311827398394	1.002
17	7068	8.361827398394	1.002
17	7129	8.411827398394	1.002
17	7239	8.461827398394	1.002
17	7300	8.511827398394	1.002
17	7410	8.561827398394	1.002
17	7471	8.611827398394	1.002
17	7571	8.661827398394	1.002
17	7632	8.711827398394	1.002
17	7742	8.761827398394	1.002
17	7803	8.811827398394	1.002
17	7913	8.861827398394	1.002
17	7974	8.911827398394	1.002
17	8084	8.961827398394	1.002
17	8145	9.011827398394	1.002
17	8255	9.061827398394	1.002
17	8316	9.111827398394	1.002
17	8438	9.161827398394	1.002
17	8512	9.211827398394	1.002
17	8647	9.261827398394	1.002
17	8721	9.311827398394	1.002
17	8856	9.361827398394	1.002
17	8930	9.411827398394	1.002
17	9052	9.461827398394	1.002
17	9126	9.511827398394	1.002
17	9261	9.561827398394	1.002
17	9335	9.611827398394	1.002
17	9457	9.661827398394	1.002
17	9531	9.711827398394	1.002
17	9666	9.761827398394	1.002
17	9773	9.811827398394	1.002
17	9941	9.861827398394	1.002
17	10048	9.911827398394	1.002
17	10203	9.961827398394	1.002
17	10310	10.011827398394	1.002
17	10478	10.061827398394	1.002
17	10585	10.111827398394	1.002
17	10753	10.161827398394	1.002
17	10860	10.211827398394	1.002
17	11028	10.261827398394	1.002
17	11135	10.311827398394	1.002
17	11290	10.361827398394	1.002
17	11397	10.411827398394	1.002
17	11552	10.461827398394	1.002
17	11659	10.511827398394	1.002
17	11814	10.561827398394	1.002
17	11921	10.611827398394	1.002
17	12076	10.661827398394	1.002
17	12183	10.711827398394	1.002
17	12351	10.761827398394	1.002
17	12458	10.811827398394	1.002
17	12613	10.861827398394	1.002
17	12720	10.911827398394	1.002
17	12875	10.961827398394	1.002
17	12982	11.011827398394	1.002
17	13150	11.061827398394	1.002
17	13257	11.111827398394	1.002
17	13412	11.161827398394	1.002
17	13519	11.211827398394	1.002
17	13687	11.261827398394	1.002
17	13794	11.311827398394	1.002
17	13962	11.361827398394	1.002
17	14069	11.411827398394	1.002
17	14237	11.461827398394	1.002
17	14344	11.511827398394	1.002
17	14499	11.561827398394	1.002
17	14606	11.611827398394	1.002
17	14761	11.661827398394	1.002
17	14868	11.711827398394	1.002
17	15023	11.761827398394	1.002
17	15130	11.811827398394	1.002
17	15285	11.861827398394	1.002
17	15392	11.911827398394	1.002
17	15560	11.961827398394	1.002
17	15667	12.011827398394	1.002
17	15835	12.061827398394	1.002
17	15942	12.111827398394	1.002
17	16153	12.161827398394	1.002
17	16281	12.211827398394	1.002
17	16540	12.261827398394	1.002
17	16668	12.311827398394	1.002
17	16927	12.361827398394	1.002
17	17055	12.411827398394	1.002
17	17303	12.461827398394	1.002
17	17431	12.511827398394	1.002
17	17690	12.561827398394	1.002
17	17818	12.611827398394	1.002
17	18078	12.661827398394	1.002
17	18206	12.711827398394	1.002
17	18451	12.761827398394	1.002
17	18579	12.811827398394	1.002
17	18823	12.861827398394	1.002
17	18951	12.911827398394	1.002
17	19199	12.961827398394	1.002
17	19327	13.011827398394	1.002
17	19587	13.061827398394	1.002
17	19715	13.111827398394	1.002
17	19958	13.161827398394	1.002
17	20086	13.211827398394	1.002
17	20330	13.261827398394	1.002
17	20458	13.311827398394	1.002
17	20717	13.361827398394	1.002
17	20845	13.411827398394	1.002
17	21077	13.461827398394	1.002
17	21205	13.511827398394	1.002
17	21453	13.561827398394	1.002
17	21581	13.611827398394	1.002
17	21825	13.661827398394	1.002
17	21953	13.711827398394	1.002
17	22196	13.761827398394	1.002
17	22324	13.811827398394	1.002
17	22583	13.861827398394	1.002
17	22711	13.911827398394	1.002
17	22970	13.961827398394	1.002
17	23098	14.011827398394	1.002
17	23357	14.061827398394	1.002
17	23485	14.111827398394	1.002
17	23744	14.161827398394	1.002
17	23872	14.211827398394	1.002
17	24131	14.261827398394	1.002
17	24259	14.311827398394	1.002
17	24507	14.361827398394	1.002
17	24635	14.411827398394	1.002
17	24895	14.461827398394	1.002
17	25023	14.511827398394	1.002
17	25282	14.561827398394	1.002
17	25410	14.611827398394	1.002
17	25653	14.661827398394	1.002
17	25781	14.711827398394	1.002
17	26029	14.761827398394	1.002
17	26157	14.811827398394	1.002
17	26400	14.861827398394	1.002
17	26528	14.911827398394	1.002
17	26771	14.961827398394	1.002
17	26899	15.011827398394	1.002
17	27142	15.061827398394	1.002
17	27270	15.111827398394	1.002
17	27529	15.161827398394	1.002
17	27657	15.211827398394	1.002
17	27916	15.261827398394	1.002
17	28044	15.311827398394	1.002
17	28303	15.361827398394	1.002
17	28431	15.411827398394	1.002
17	28668	15.461827398394	1.002
17	28796	15.511827398394	1.002
17	29055	15.561827398394	1.002
17	29183	15.611827398394	1.002
17	29442	15.661827398394	1.002
17	29570	15.711827398394	1.002
17	29829	15.761827398394	1.002
17	29957	15.811827398394	1.002
17	30216	15.861827398394	1.002
17	30344	15.911827398394	1.002
17	30587	15.961827398394	1.002
17	30715	16.011827398394	1.002
17	30963	16.061827398394	1.002
17	31091	16.111827398394	1.002
17	31339	16.161827398394	1.002
17	31467	16.211827398394	1.002
17	31726	16.261827398394	1.002
17	31854	16.311827398394	1.002
17	32097	16.361827398394	1.002
17	32225	16.411827398394	1.002
17	32468	16.461827398394	1.002
17	32596	16.511827398394	1.002
17	32855	16.561827398394	1.002
17	32983	16.611827398394	1.002
17	33242	16.661827398394	1.002
17	33370	16.711827398394	1.002
17	33602	16.761827398394	1.002
17	33730	16.811827398394	1.002
17	33978	16.861827398394	1.002
17	34106	16.911827398394	1.002
17	34349	16.961827398394	1.002
17	34477	17.011827398394	1.002
17	34720	17.061827398394	1.002
17	34848	17.111827398394	1.002
17	35107	17.161827398394	1.002
17	35235	17.211827398394	1.002
17	35483	17.261827398394	1.002
17	35611	17.311827398394	1.002
17	35854	17.361827398394	1.002
17	35982	17.411827398394	1.002
17	36230	17.461827398394	1.002
17	36358	17.511827398394	1.002
17	36617	17.561827398394	1.002
17	36745	17.611827398394	1.002
17	37004	17.661827398394	1.002
17	37132	17.711827398394	1.002
17	37375	17.761827398394	1.002
17	37503	17.811827398394	1.002
17	37746	17.861827398394	1.002
17	37874	17.911827398394	1.002
17	38133	17.961827398394	1.002
17	38261	18.011827398394	1.002
17	38509	18.061827398394	1.002
17	38637	18.111827398394	1.002
17	38880	18.161827398394	1.002
17	39008	18.211827398394	1.002
17	39251	18.261827398394	1.002
17	39379	18.311827398394	1.002
17	39638	18.361827398394	1.002
17	39766	18.411827398394	1.002
17	40014	18.461827398394	1.002
17	40142	18.511827398394	1.002
17	40401	18.561827398394	1.002
17	40529	18.611827398394	1.002
17	40788	18.661827398394	1.002
17	40916	18.711827398394	1.002
17	41175	18.761827398394	1.002
17	41303	18.811827398394	1.002
17	41551	18.861827398394	1.002
17	41679	18.911827398394	1.002
17	41922	18.961827398394	1.002
17	42050	19.011827398394	1.002
17	42309	19.061827398394	1.002
17	42437	19.111827398394	1.002
17	42685	19.161827398394	1.002
17	42813	19.211827398394	1.002
17	43056	19.261827398394	1.002
17	43184	19.311827398394	1.002
17	43443	19.361827398394	1.002
17	43571	19.411827398394	1.002
17	43830	19.461827398394	1.002
17	43958	19.511827398394	1.002
17	44206	19.561827398394	1.002
17	44334	19.611827398394	1.002
17	44593	19.661827398394	1.002
17	44721	19.711827398394	1.002
17	44980	19.761827398394	1.002
17	45108	19.811827398394	1.002
17	45367	19.861827398394	1.002
17	45495	19.911827398394	1.002
17	45743	19.961827398394	1.002
17	45871	20.011827398394	1.002
17	46114	20.061827398394	1.002
17	46242	20.111827398394	1.002
17	46501	20.161827398394	1.002
17	46629	20.211827398394	1.002
17	46872	20.261827398394	1.002
17	47000	20.311827398394	1.002
17	47259	20.361827398394	1.002
17	47387	20.411827398394	1.002
17	47646	20.461827398394	1.002
17	47774	20.511827398394	1.002
17	48049	20.561827398394	1.002
17	48177	20.611827398394	1.002
17	48425	20.661827398394	1.002
17	48553	20.711827398394	1.002
17	48796	20.761827398394	1.002
17	48924	20.811827398394	1.002
17	49172	20.861827398394	1.002
17	49300	20.911827398394	1.002
17	49548	20.961827398394	1.002
17	49676	21.011827398394	1.002
17	49919	21.061827398394	1.002
17	50047	21.111827398394	1.002
17	50322	21.161827398394	1.002
17	50450	21.211827398394	1.002
17	50698	21.261827398394	1.002
17	50826	21.311827398394	1.002
17	51085	21.361827398394	1.002
17	51213	21.411827398394	1.002
17	51461	21.461827398394	1.002
17	51589	21.511827398394	1.002
17	51848	21.561827398394	1.002
17	51976	21.611827398394	1.002
17	52251	21.661827398394	1.002
17	52379	21.711827398394	1.002
17	52622	21.761827398394	1.002
17	52750	21.811827398394	1.002
17	52993	21.861827398394	1.002
17	53121	21.911827398394	1.002
17	53369	21.961827398394	1.002
17	53497	22.011827398394	1.002
17	53729	22.061827398394	1.002
17	53857	22.111827398394	1.002
17	54116	22.161827398394	1.002
17	54244	22.211827398394	1.002
17	54503	22.261827398394	1.002
17	54631	22.311827398394	1.002
17	54879	22.361827398394	1.002
17	55007	22.411827398394	1.002
17	55266	22.461827398394	1.002
17	55394	22.511827398394	1.002
17	55637	22.561827398394	1.002
17	55765	22.611827398394	1.002
17	56024	22.661827398394	1.002
17	56152	22.711827398394	1.002
17	56411	22.761827398394	1.002
17	56539	22.811827398394	1.002
17	56782	22.861827398394	1.002
17	56910	22.911827398394	1.002
17	57169	22.961827398394	1.002
17	57297	23.011827398394	1.002
17	57556	23.061827398394	1.002
17	57684	23.111827398394	1.002
17	57943	23.161827398394	1.002
17	58071	23.211827398394	1.002
17	58330	23.261827398394	1.002
17	58458	23.311827398394	1.002
17	58717	23.361827398394	1.002
17	58845	23.411827398394	1.002
17	59104	23.461827398394	1.002
17	59232	23.511827398394	1.002
17	59480	23.561827398394	1.002
17	59608	23.611827398394	1.002
17	59851	23.661827398394	1.002
17	59979	23.711827398394	1.002
17	60238	23.761827398394	1.002
17	60366	23.811827398394	1.002
17	60609	23.861827398394	1.002
17	60737	23.911827398394	1.002
17	60996	23.961827398394	1.002
17	61124	24.011827398394	1.002
17	61383	24.061827398394	1.002
17	61511	24.111827398394	1.002
17	61770	24.161827398394	1.002
17	61898	24.211827398394	1.002
17	62157	24.261827398394	1.002
17	62285	24.311827398394	1.002
17	62528	24.361827398394	1.002
17	62656	24.411827398394	1.002
17	62915	24.461827398394	1.002
17	63043	24.511827398394	1.002
17	63302	24.561827398394	1.002
17	63430	24.611827398394	1.002
17	63689	24.661827398394	1.002
17	63817	24.711827398394	1.002
17	64065	24.761827398394	1.002
17	64193	24.811827398394	1.002
17	64436	24.861827398394	1.002
17	64564	24.911827398394	1.002
17	64801	24.961827398394	1.002
17	64929	25.011827398394	1.002
17	65188	25.061827398394	1.002
17	65316	25.111827398394	1.002
17	65575	25.161827398394	1.002
17	65703	25.211827398394	1.002
17	65946	25.261827398394	1.002
17	66074	25.311827398394	1.002
17	66333	25.361827398394	1.002
17	66461	25.411827398394	1.002
17	66720	25.461827398394	1.002
17	66848	25.511827398394	1.002
17	67096	25.561827398394	1.002
17	67224	25.611827398394	1.002
17	67472	25.661827398394	1.002
17	67600	25.711827398394	1.002
17	67859	25.761827398394	1.002
17	67987	25.811827398394	1.002
17	68246	25.861827398394	1.002
17	68374	25.911827398394	1.002
17	68649	25.961827398394	1.002
17	68777	26.011827398394	1.002
17	69052	26.061827398394	1.002
17	69180	26.111827398394	1.002
17	69423	26.161827398394	1.002
17	69551	26.211827398394	1.002
17	69799	26.261827398394	1.002
17	69927	26.311827398394	1.002
17	70170	26.361827398394	1.002
17	70298	26.411827398394	1.002
17	70546	26.461827398394	1.002
17	70674	26.511827398394	1.002
17	70922	26.561827398394	1.002
17	71050	26.611827398394	1.002
17	71293	26.661827398394	1.002
17	71421	26.711827398394	1.002
17	71664	26.761827398394	1.002
17	71792	26.811827398394	1.002
17	72029	26.861827398394	1.002
17	72157	26.911827398394	1.002
17	72405	26.961827398394	1.002
17	72533	27.011827398394	1.002
17	72781	27.061827398394	1.002
17	72909	27.111827398394	1.002
17	73157	27.161827398394	1.002
17	73285	27.211827398394	1.002
17	73544	27.261827398394	1.002
17	73672	27.311827398394	1.002
17	73931	27.361827398394	1.002
17	74059	27.411827398394	1.002
17	74318	27.461827398394	1.002
17	74446	27.511827398394	1.002
17	74689	27.561827398394	1.002
17	74817	27.611827398394	1.002
17	75076	27.661827398394	1.002
17	75204	27.711827398394	1.002
17	75463	27.761827398394	1.002
17	75591	27.811827398394	1.002
17	75823	27.861827398394	1.002
17	75951	27.911827398394	1.002
17	76199	27.961827398394	1.002
17	76327	28.011827398394	1.002
17	76575	28.061827398394	1.002
17	76703	28.111827398394	1.002
17	76946	28.161827398394	1.002
17	77074	28.211827398394	1.002
17	77333	28.261827398394	1.002
17	77461	28.311827398394	1.002
17	77720	28.361827398394	1.002
17	77848	28.411827398394	1.002
17	78091	28.461827398394	1.002
17	78219	28.511827398394	1.002
17	78478	28.561827398394	1.002
17	78606	28.611827398394	1.002
17	78865	28.661827398394	1.002
17	78993	28.711827398394	1.002
17	79241	28.761827398394	1.002
17	79369	28.811827398394	1.002
17	79612	28.861827398394	1.002
17	79740	28.911827398394	1.002
17	79988	28.961827398394	1.002
17	80116	29.011827398394	1.002
17	80375	29.061827398394	1.002
17	80503	29.111827398394	1.002
17	80762	29.161827398394	1.002
17	80890	29.211827398394	1.002
17	81149	29.261827398394	1.002
17	81277	29.311827398394	1.002
17	81525	29.361827398394	1.002
17	81653	29.411827398394	1.002
17	81912	29.461827398394	1.002
17	82040	29.511827398394	1.002
17	82283	29.561827398394	1.002
17	82411	29.611827398394	1.002
17	82670	29.661827398394	1.002
17	82798	29.711827398394	1.002
17	83057	29.761827398394	1.002
17	83185	29.811827398394	1.002
17	83444	29.861827398394	1.002
17	83572	29.911827398394	1.002
17	83831	29.961827398394	1.002
17	83959	30.011827398394	1.002
17	84202	30.061827398394	1.002
17	84330	30.111827398394	1.002
17	84573	30.161827398394	1.002
17	84701	30.211827398394	1.002
17	84960	30.261827398394	1.002
17	85088	30.311827398394	1.002
17	85347	30.361827398394	1.002
17	85475	30.411827398394	1.002
17	85750	30.461827398394	1.002
17	85878	30.511827398394	1.002
17	86137	30.561827398394	1.002
17	86265	30.611827398394	1.002
17	86508	30.661827398394	1.002
17	86636	30.711827398394	1.002
17	86895	30.761827398394	1.002
17	87023	30.811827398394	1.002
17	87271	30.861827398394	1.002
17	87399	30.911827398394	1.002
17	87658	30.961827398394	1.002
17	87786	31.011827398394	1.002
17	88045	31.061827398394	1.002
17	88173	31.111827398394	1.002
17	88432	31.161827398394	1.002
17	88560	31.211827398394	1.002
17	88808	31.261827398394	1.002
17	88936	31.311827398394	1.002
17	89179	31.361827398394	1.002
17	89307	31.411827398394	1.002
17	89566	31.461827398394	1.002
17	89694	31.511827398394	1.002
17	89937	31.561827398394	1.002
17	90065	31.611827398394	1.002
17	90324	31.661827398394	1.002
17	90452	31.711827398394	1.002
17	90700	31.761827398394	1.002
17	90828	31.811827398394	1.002
17	91087	31.861827398394	1.002
17	91215	31.911827398394	1.002
17	91458	31.961827398394	1.002
17	91586	32.011827398394	1.002
17	91845	32.061827398394	1.002
17	91973	32.111827398394	1.002
17	92221	32.161827398394	1.002
17	92349	32.211827398394	1.002
17	92608	32.261827398394	1.002
17	92736	32.311827398394	1.002
17	92984	32.361827398394	1.002
17	93112	32.411827398394	1.002
17	93371	32.461827398394	1.002
17	93499	32.511827398394	1.002
17	93758	32.561827398394	1.002
17	93886	32.611827398394	1.002
17	94134	32.661827398394	1.002
17	94262	32.711827398394	1.002
17	94537	32.761827398394	1.002
17	94665	32.811827398394	1.002
17	94924	32.861827398394	1.002
17	95052	32.911827398394	1.002
17	95284	32.961827398394	1.002
17	95412	33.011827398394	1.002
17	95671	33.061827398394	1.002
17	95799	33.111827398394	1.002
17	96058	33.161827398394	1.002
17	96186	33.211827398394	1.002
17	96434	33.261827398394	1.002
17	96562	33.311827398394	1.002
17	96805	33.361827398394	1.002
17	96933	33.411827398394	1.002
17	97176	33.461827398394	1.002
17	97304	33.511827398394	1.002
17	97547	33.561827398394	1.002
17	97675	33.611827398394	1.002
17	97923	33.661827398394	1.002
17	98051	33.711827398394	1.002
17	98326	33.761827398394	1.002
17	98454	33.811827398394	1.002
17	98713	33.861827398394	1.002
17	98841	33.911827398394	1.002
17	99100	33.961827398394	1.002
17	99228	34.011827398394	1.002
17	99487	34.061827398394	1.002
17	99615	34.111827398394	1.002
17	99874	34.161827398394	1.002
17	100002	34.211827398394	1.002
17	100261	34.261827398394	1.002
17	100389	34.311827398394	1.002
17	100632	34.361827398394	1.002
17	100760	34.411827398394	1.002
17	101008	34.461827398394	1.002
17	101136	34.511827398394	1.002
17	101384	34.561827398394	1.002
17	101512	34.611827398394	1.002
17	101771	34.661827398394	1.002
17	101899	34.711827398394	1.002
17	102158	34.761827398394	1.002
17	102286	34.811827398394	1.002
17	102545	34.861827398394	1.002
17	102673	34.911827398394	1.002
17	102932	34.961827398394	1.002
17	103060	35.011827398394	1.002
17	103335	35.061827398394	1.002
17	103463	35.111827398394	1.002
17	103711	35.161827398394	1.002
17	103839	35.211827398394	1.002
17	104087	35.261827398394	1.002
17	104215	35.311827398394	1.002
17	104474	35.361827398394	1.002
17	104602	35.411827398394	1.002
17	104850	35.461827398394	1.002
17	104978	35.511827398394	1.002
17	105221	35.561827398394	1.002
17	105349	35.611827398394	1.002
17	105608	35.661827398394	1.002
17	105736	35.711827398394	1.002
17	105984	35.761827398394	1.002
17	106112	35.811827398394	1.002
17	106355	35.861827398394	1.002
17	106483	35.911827398394	1.002
17	106742	35.961827398394	1.002
17	106870	36.011827398394	1.002
17	107113	36.061827398394	1.002
17	107241	36.111827398394	1.002
17	107500	36.161827398394	1.002
17	107628	36.211827398394	1.002
17	107887	36.261827398394	1.002
17	108015	36.311827398394	1.002
17	108274	36.361827398394	1.002
17	108402	36.411827398394	1.002
17	108645	36.461827398394	1.002
17	108773	36.511827398394	1.002
17	109048	36.561827398394	1.002
17	109176	36.611827398394	1.002
17	109435	36.661827398394	1.002
17	109563	36.711827398394	1.002
17	109806	36.761827398394	1.002
17	109934	36.811827398394	1.002
17	110182	36.861827398394	1.002
17	110310	36.911827398394	1.002
17	110569	36.961827398394	1.002
17	110697	37.011827398394	1.002
17	110956	37.061827398394	1.002
17	111084	37.111827398394	1.002
17	111327	37.161827398394	1.002
17	111455	37.211827398394	1.002
17	111714	37.261827398394	1.002
17	111842	37.311827398394	1.002
17	112101	37.361827398394	1.002
17	112229	37.411827398394	1.002
17	112488	37.461827398394	1.002
17	112616	37.511827398394	1.002
17	112859	37.561827398394	1.002
17	112987	37.611827398394	1.002
17	113230	37.661827398394	1.002
17	113358	37.711827398394	1.002
17	113601	37.761827398394	1.002
17	113729	37.811827398394	1.002
17	113977	37.861827398394	1.002
17	114105	37.911827398394	1.002
17	114364	37.961827398394	1.002
17	114492	38.011827398394	1.002
17	114724	38.061827398394	1.002
17	114852	38.111827398394	1.002
17	115100	38.161827398394	1.002
17	115228	38.211827398394	1.002
17	115487	38.261827398394	1.002
17	115615	38.311827398394	1.002
17	115863	38.361827398394	1.002
17	115991	38.411827398394	1.002
17	116239	38.461827398394	1.002
17	116367	38.511827398394	1.002
17	116615	38.561827398394	1.002
17	116743	38.611827398394	1.002
17	117002	38.661827398394	1.002
17	117130	38.711827398394	1.002
17	117389	38.761827398394	1.002
17	117517	38.811827398394	1.002
17	117776	38.861827398394	1.002
17	117904	38.911827398394	1.002
17	118152	38.961827398394	1.002
17	118280	39.011827398394	1.002
17	118523	39.061827398394	1.002
17	118651	39.111827398394	1.002
17	118910	39.161827398394	1.002
17	119038	39.211827398394	1.002
17	119286	39.261827398394	1.002
17	119414	39.311827398394	1.002
17	119673	39.361827398394	1.002
17	119801	39.411827398394	1.002
17	120049	39.461827398394	1.002
17	120177	39.511827398394	1.002
17	120425	39.561827398394	1.002
17	120553	39.611827398394	1.002
17	120796	39.661827398394	1.002
17	120924	39.711827398394	1.002
17	121167	39.761827398394	1.002
17	121295	39.811827398394	1.002
17	121538	39.861827398394	1.002
17	121666	39.911827398394	1.002
17	121925	39.961827398394	1.002
17	122053	40.011827398394	1.002
17	122312	40.061827398394	1.002
17	122440	40.111827398394	1.002
17	122683	40.161827398394	1.002
17	122811	40.211827398394	1.002
17	123070	40.261827398394	1.002
17	123198	40.311827398394	1.002
17	123441	40.361827398394	1.002
17	123569	40.411827398394	1.002
17	123817	40.461827398394	1.002
17	123945	40.511827398394	1.002
17	124204	40.561827398394	1.002
17	124332	40.611827398394	1.002
17	124575	40.661827398394	1.002
17	124703	40.711827398394	1.002
17	124951	40.761827398394	1.002
17	125079	40.811827398394	1.002
17	125338	40.861827398394	1.002
17	125466	40.911827398394	1.002
17	125725	40.961827398394	1.002
17	125853	41.011827398394	1.002
17	126112	41.061827398394	1.002
17	126240	41.111827398394	1.002
17	126483	41.161827398394	1.002
17	126611	41.211827398394	1.002
17	126870	41.261827398394	1.002
17	126998	41.311827398394	1.002
17	127257	41.361827398394	1.002
17	127385	41.411827398394	1.002
17	127628	41.461827398394	1.002
17	127756	41.511827398394	1.002
17	127999	41.561827398394	1.002
17	128127	41.611827398394	1.002
17	128370	41.661827398394	1.002
17	128498	41.711827398394	1.002
17	128746	41.761827398394	1.002
17	128874	41.811827398394	1.002
17	129133	41.861827398394	1.002
17	129261	41.911827398394	1.002
17	129520	41.961827398394	1.002
17	129648	42.011827398394	1.002
17	129907	42.061827398394	1.002
17	130035	42.111827398394	1.002
17	130278	42.161827398394	1.002
17	130406	42.211827398394	1.002
17	130665	42.261827398394	1.002
17	130793	42.311827398394	1.002
17	131052	42.361827398394	1.002
17	131180	42.411827398394	1.002
17	131423	42.461827398394	1.002
17	131551	42.511827398394	1.002
17	131794	42.561827398394	1.002
17	131922	42.611827398394	1.002
17	132170	42.661827398394	1.002
17	132298	42.711827398394	1.002
17	132557	42.761827398394	1.002
17	132685	42.811827398394	1.002
17	132933	42.861827398394	1.002
17	133061	42.911827398394	1.002
17	133320	42.961827398394	1.002
17	133448	43.011827398394	1.002
17	133723	43.061827398394	1.002
17	133851	43.111827398394	1.002
17	134110	43.161827398394	1.002
17	134238	43.211827398394	1.002
17	134470	43.261827398394	1.002
17	134598	43.311827398394	1.002
17	134846	43.361827398394	1.002
17	134974	43.411827398394	1.002
17	135222	43.461827398394	1.002
17	135350	43.511827398394	1.002
17	135593	43.561827398394	1.002
17	135721	43.611827398394	1.002
17	135969	43.661827398394	1.002
17	136097	43.711827398394	1.002
17	136356	43.761827398394	1.002
17	136484	43.811827398394	1.002
17	136727	43.861827398394	1.002
17	136855	43.911827398394	1.002
17	137114	43.961827398394	1.002
17	137242	44.011827398394	1.002
17	137501	44.061827398394	1.002
17	137629	44.111827398394	1.002
17	137877	44.161827398394	1.002
17	138005	44.211827398394	1.002
17	138253	44.261827398394	1.002
17	138381	44.311827398394	1.002
17	138624	44.361827398394	1.002
17	138752	44.411827398394	1.002
17	138995	44.461827398394	1.002
17	139123	44.511827398394	1.002
17	139382	44.561827398394	1.002
17	139510	44.611827398394	1.002
17	139742	44.661827398394	1.002
17	139870	44.711827398394	1.002
17	140113	44.761827398394	1.002
17	140241	44.811827398394	1.002
17	140500	44.861827398394	1.002
17	140628	44.911827398394	1.002
17	140887	44.961827398394	1.002
17	141015	45.011827398394	1.002
17	141274	45.061827398394	1.002
17	141402	45.111827398394	1.002
17	141650	45.161827398394	1.002
17	141778	45.211827398394	1.002
17	142053	45.261827398394	1.002
17	142181	45.311827398394	1.002
17	142429	45.361827398394	1.002
17	142557	45.411827398394	1.002
17	142800	45.461827398394	1.002
17	142928	45.511827398394	1.002
17	143176	45.561827398394	1.002
17	143304	45.611827398394	1.002
17	143563	45.661827398394	1.002
17	143691	45.711827398394	1.002
17	143950	45.761827398394	1.002
17	144078	45.811827398394	1.002
17	144337	45.861827398394	1.002
17	144465	45.911827398394	1.002
17	144724	45.961827398394	1.002
17	144852	46.011827398394	1.002
17	145100	46.061827398394	1.002
17	145228	46.111827398394	1.002
17	145465	46.161827398394	1.002
17	145593	46.211827398394	1.002
17	145868	46.261827398394	1.002
17	145996	46.311827398394	1.002
17	146244	46.361827398394	1.002
17	146372	46.411827398394	1.002
17	146620	46.461827398394	1.002
17	146748	46.511827398394	1.002
17	147007	46.561827398394	1.002
17	147135	46.611827398394	1.002
17	147394	46.661827398394	1.002
17	147522	46.711827398394	1.002
17	147781	46.761827398394	1.002
17	147909	46.811827398394	1.002
17	148168	46.861827398394	1.002
17	148296	46.911827398394	1.002
17	148544	46.961827398394	1.002
17	148672	47.011827398394	1.002
17	148931	47.061827398394	1.002
17	149059	47.111827398394	1.002
17	149318	47.161827398394	1.002
17	149446	47.211827398394	1.002
17	149694	47.261827398394	1.002
17	149822	47.311827398394	1.002
17	150065	47.361827398394	1.002
17	150193	47.411827398394	1.002
17	150436	47.461827398394	1.002
17	150564	47.511827398394	1.002
17	150823	47.561827398394	1.002
17	150951	47.611827398394	1.002
17	151194	47.661827398394	1.002
17	151322	47.711827398394	1.002
17	151565	47.761827398394	1.002
17	151693	47.811827398394	1.002
17	151941	47.861827398394	1.002
17	152069	47.911827398394	1.002
17	152328	47.961827398394	1.002
17	152456	48.011827398394	1.002
17	152715	48.061827398394	1.002
17	152843	48.111827398394	1.002
17	153086	48.161827398394	1.002
17	153214	48.211827398394	1.002
17	153462	48.261827398394	1.002
17	153590	48.311827398394	1.002
17	153849	48.361827398394	1.002
17	153977	48.411827398394	1.002
17	154236	48.461827398394	1.002
17	154364	48.511827398394	1.002
17	154623	48.561827398394	1.002
17	154751	48.611827398394	1.002
17	155010	48.661827398394	1.002
17	155138	48.711827398394	1.002
17	155397	48.761827398394	1.002
17	155525	48.811827398394	1.002
17	155784	48.861827398394	1.002
17	155912	48.911827398394	1.002
17	156160	48.961827398394	1.002
17	156288	49.011827398394	1.002
17	156536	49.061827398394	1.002
17	156664	49.111827398394	1.002
17	156923	49.161827398394	1.002
17	157051	49.211827398394	1.002
17	157310	49.261827398394	1.002
17	157438	49.311827398394	1.002
17	157697	49.361827398394	1.002
17	157825	49.411827398394	1.002
17	158084	49.461827398394	1.002
17	158212	49.511827398394	1.002
17	158471	49.561827398394	1.002
17	158599	49.611827398394	1.002
17	158858	49.661827398394	1.002
17	158986	49.711827398394	1.002
17	159229	49.761827398394	1.002
17	159357	49.811827398394	1.002
17	159616	49.861827398394	1.002
17	159744	49.911827398394	1.002
17	159987	49.961827398394	1.002
17	160115	50.011827398394	1.002
17	160374	50.061827398394	1.002
17	160502	50.111827398394	1.002
17	160761	50.161827398394	1.002
17	160889	50.211827398394	1.002
17	161132	50.261827398394	1.002
17	161260	50.311827398394	1.002
17	161503	50.361827398394	1.002
17	161631	50.411827398394	1.002
17	161874	50.461827398394	1.002
17	162002	50.511827398394	1.002
17	162245	50.561827398394	1.002
17	162373	50.611827398394	1.002
17	162621	50.661827398394	1.002
17	162749	50.711827398394	1.002
17	162997	50.761827398394	1.002
17	163125	50.811827398394	1.002
17	163373	50.861827398394	1.002
17	163501	50.911827398394	1.002
17	163749	50.961827398394	1.002
17	163877	51.011827398394	1.002
17	164120	51.061827398394	1.002
17	164248	51.111827398394	1.002
17	164523	51.161827398394	1.002
17	164651	51.211827398394	1.002
17	164899	51.261827398394	1.002
17	165027	51.311827398394	1.002
17	165286	51.361827398394	1.002
17	165414	51.411827398394	1.002
17	165657	51.461827398394	1.002
17	165785	51.511827398394	1.002
17	166044	51.561827398394	1.002
17	166172	51.611827398394	1.002
17	166420	51.661827398394	1.002
17	166548	51.711827398394	1.002
17	166807	51.761827398394	1.002
17	166935	51.811827398394	1.002
17	167183	51.861827398394	1.002
17	167311	51.911827398394	1.002
17	167570	51.961827398394	1.002
17	167698	52.011827398394	1.002
17	167957	52.061827398394	1.002
17	168085	52.111827398394	1.002
17	168344	52.161827398394	1.002
17	168472	52.211827398394	1.002
17	168731	52.261827398394	1.002
17	168859	52.311827398394	1.002
17	169118	52.361827398394	1.002
17	169246	52.411827398394	1.002
17	169505	52.461827398394	1.002
17	169633	52.511827398394	1.002
17	169892	52.561827398394	1.002
17	170020	52.611827398394	1.002
17	170279	52.661827398394	1.002
17	170407	52.711827398394	1.002
17	170655	52.761827398394	1.002
17	170783	52.811827398394	1.002
17	171031	52.861827398394	1.002
17	171159	52.911827398394	1.002
17	171391	52.961827398394	1.002
17	171519	53.011827398394	1.002
17	171762	53.061827398394	1.002
17	171890	53.111827398394	1.002
17	172133	53.161827398394	1.002
17	172261	53.211827398394	1.002
17	172509	53.261827398394	1.002
17	172637	53.311827398394	1.002
17	172880	53.361827398394	1.002
17	173008	53.411827398394	1.002
17	173267	53.461827398394	1.002
17	173395	53.511827398394	1.002
17	173643	53.561827398394	1.002
17	173771	53.611827398394	1.002
17	174030	53.661827398394	1.002
17	174158	53.711827398394	1.002
17	174417	53.761827398394	1.002
17	174545	53.811827398394	1.002
17	174804	53.861827398394	1.002
17	174932	53.911827398394	1.002
17	175191	53.961827398394	1.002
17	175319	54.011827398394	1.002
17	175578	54.061827398394	1.002
17	175706	54.111827398394	1.002
17	175949	54.161827398394	1.002
17	176077	54.211827398394	1.002
17	176336	54.261827398394	1.002
17	176464	54.311827398394	1.002
17	176723	54.361827398394	1.002
17	176851	54.411827398394	1.002
17	177099	54.461827398394	1.002
17	177227	54.511827398394	1.002
17	177486	54.561827398394	1.002
17	177614	54.611827398394	1.002
17	177873	54.661827398394	1.002
17	178001	54.711827398394	1.002
17	178260	54.761827398394	1.002
17	178388	54.811827398394	1.002
17	178636	54.861827398394	1.002
17	178764	54.911827398394	1.002
17	179023	54.961827398394	1.002
17	179151	55.011827398394	1.002
17	179426	55.061827398394	1.002
17	179554	55.111827398394	1.002
17	179813	55.161827398394	1.002
17	179941	55.211827398394	1.002
17	180184	55.261827398394	1.002
17	180312	55.311827398394	1.002
17	180555	55.361827398394	1.002
17	180683	55.411827398394	1.002
17	180942	55.461827398394	1.002
17	181070	55.511827398394	1.002
17	181329	55.561827398394	1.002
17	181457	55.611827398394	1.002
17	181716	55.661827398394	1.002
17	181844	55.711827398394	1.002
17	182092	55.761827398394	1.002
17	182220	55.811827398394	1.002
17	182468	55.861827398394	1.002
17	182596	55.911827398394	1.002
17	182855	55.961827398394	1.002
17	182983	56.011827398394	1.002
17	183226	56.061827398394	1.002
17	183354	56.111827398394	1.002
17	183597	56.161827398394	1.002
17	183725	56.211827398394	1.002
17	183973	56.261827398394	1.002
17	184101	56.311827398394	1.002
17	184344	56.361827398394	1.002
17	184472	56.411827398394	1.002
17	184747	56.461827398394	1.002
17	184875	56.511827398394	1.002
17	185134	56.561827398394	1.002
17	185262	56.611827398394	1.002
17	185499	56.661827398394	1.002
17	185627	56.711827398394	1.002
17	185886	56.761827398394	1.002
17	186014	56.811827398394	1.002
17	186246	56.861827398394	1.002
17	186374	56.911827398394	1.002
17	186617	56.961827398394	1.002
17	186745	57.011827398394	1.002
17	187004	57.061827398394	1.002
17	187132	57.111827398394	1.002
17	187380	57.161827398394	1.002
17	187508	57.211827398394	1.002
17	187756	57.261827398394	1.002
17	187884	57.311827398394	1.002
17	188143	57.361827398394	1.002
17	188271	57.411827398394	1.002
17	188530	57.461827398394	1.002
17	188658	57.511827398394	1.002
17	188917	57.561827398394	1.002
17	189045	57.611827398394	1.002
17	189304	57.661827398394	1.002
17	189432	57.711827398394	1.002
17	189680	57.761827398394	1.002
17	189808	57.811827398394	1.002
17	190045	57.861827398394	1.002
17	190173	57.911827398394	1.002
17	190421	57.961827398394	1.002
17	190549	58.011827398394	1.002
17	190824	58.061827398394	1.002
17	190952	58.111827398394	1.002
17	191211	58.161827398394	1.002
17	191339	58.211827398394	1.002
17	191598	58.261827398394	1.002
17	191726	58.311827398394	1.002
17	191985	58.361827398394	1.002
17	192113	58.411827398394	1.002
17	192356	58.461827398394	1.002
17	192484	58.511827398394	1.002
17	192716	58.561827398394	1.002
17	192844	58.611827398394	1.002
17	193087	58.661827398394	1.002
17	193215	58.711827398394	1.002
17	193463	58.761827398394	1.002
17	193591	58.811827398394	1.002
17	193850	58.861827398394	1.002
17	193978	58.911827398394	1.002
17	194237	58.961827398394	1.002
17	194365	59.011827398394	1.002
17	194624	59.061827398394	1.002
17	194752	59.111827398394	1.002
17	195011	59.161827398394	1.002
17	195139	59.211827398394	1.002
17	195414	59.261827398394	1.002
17	195542	59.311827398394	1.002
17	195801	59.361827398394	1.002
17	195929	59.411827398394	1.002
17	196166	59.461827398394	1.002
17	196294	59.511827398394	1.002
17	196542	59.561827398394	1.002
17	196670	59.611827398394	1.002
17	196918	59.661827398394	1.002
17	197046	59.711827398394	1.002
17	197289	59.761827398394	1.002
17	197417	59.811827398394	1.002
17	197665	59.861827398394	1.002
17	197793	59.911827398394	1.002
17	198041	59.961827398394	1.002
17	198169	60.011827398394	1.002
17	198428	60.061827398394	1.002
17	198556	60.111827398394	1.002
17	198815	60.161827398394	1.002
17	198943	60.211827398394	1.002
17	199186	60.261827398394	1.002
17	199314	60.311827398394	1.002
17	199573	60.361827398394	1.002
17	199701	60.411827398394	1.002
17	199944	60.461827398394	1.002
17	200072	60.511827398394	1.002
17	200309	60.561827398394	1.002
17	200437	60.611827398394	1.002
17	200680	60.661827398394	1.002
17	200808	60.711827398394	1.002
17	201051	60.761827398394	1.002
17	201179	60.811827398394	1.002
17	201438	60.861827398394	1.002
17	201566	60.911827398394	1.002
17	201825	60.961827398394	1.002
17	201953	61.011827398394	1.002
17	202212	61.061827398394	1.002
17	202340	61.111827398394	1.002
17	202588	61.161827398394	1.002
17	202716	61.211827398394	1.002
17	202964	61.261827398394	1.002
17	203092	61.311827398394	1.002
17	203335	61.361827398394	1.002
17	203463	61.411827398394	1.002
17	203706	61.461827398394	1.002
17	203834	61.511827398394	1.002
17	204082	61.561827398394	1.002
17	204210	61.611827398394	1.002
17	204453	61.661827398394	1.002
16	27	0.561827398394	1
16	45	0.611827398394	2
16	62	0.661827398394	3
16	80	0.711827398394	4
16	97	0.761827398394	5
16	115	0.811827398394	6
16	132	0.861827398394	7
16	150	0.911827398394	8
16	167	0.961827398394	9
16	185	1.011827398394	10
16	202	1.061827398394	11
16	220	1.111827398394	12
16	237	1.161827398394	13
16	255	1.211827398394	14
16	272	1.261827398394	15
16	290	1.311827398394	16
16	307	1.361827398394	17
16	325	1.411827398394	18
16	342	1.461827398394	19
16	360	1.511827398394	20
16	377	1.561827398394	21
16	395	1.611827398394	22
16	412	1.661827398394	23
16	430	1.711827398394	24
16	447	1.761827398394	25
16	465	1.811827398394	26
16	482	1.861827398394	27
16	500	1.911827398394	28
16	517	1.961827398394	29
16	535	2.011827398394	30
16	552	2.061827398394	31
16	570	2.111827398394	32
16	587	2.161827398394	33
16	605	2.211827398394	34
16	622	2.261827398394	35
16	640	2.311827398394	36
16	657	2.361827398394	37
16	675	2.411827398394	38
16	692	2.461827398394	39
16	710	2.511827398394	40
16	727	2.561827398394	41
16	745	2.611827398394	42
16	762	2.661827398394	43
16	780	2.711827398394	44
16	797	2.761827398394	45
16	815	2.811827398394	46
16	832	2.861827398394	47
16	850	2.911827398394	48
16	867	2.961827398394	49
16	885	3.011827398394	50
16	902	3.061827398394	51
16	920	3.111827398394	52
16	965	3.161827398394	54
16	992	3.211827398394	56
16	1056	3.261827398394	58
16	1083	3.311827398394	60
16	1147	3.361827398394	62
16	1174	3.411827398394	64
16	1238	3.461827398394	66
16	1265	3.511827398394	68
16	1329	3.561827398394	70
16	1356	3.611827398394	72
16	1420	3.661827398394	74
16	1447	3.711827398394	76
16	1511	3.761827398394	78
16	1538	3.811827398394	80
16	1602	3.861827398394	82
16	1629	3.911827398394	84
16	1693	3.961827398394	86
16	1720	4.011827398394	88
16	1784	4.061827398394	90
16	1811	4.111827398394	92
16	1875	4.161827398394	94
16	1902	4.211827398394	96
16	1966	4.261827398394	98
16	1993	4.311827398394	100
16	2057	4.361827398394	102
16	2084	4.411827398394	104
16	2148	4.461827398394	106
16	2175	4.511827398394	108
16	2239	4.561827398394	110
16	2266	4.611827398394	112
16	2330	4.661827398394	114
16	2357	4.711827398394	116
16	2421	4.761827398394	118
16	2448	4.811827398394	120
16	2512	4.861827398394	122
16	2539	4.911827398394	124
16	2603	4.961827398394	126
16	2630	5.011827398394	128
16	2694	5.061827398394	130
16	2721	5.111827398394	132
16	2785	5.161827398394	134
16	2812	5.211827398394	136
16	2876	5.261827398394	138
16	2903	5.311827398394	140
16	2967	5.361827398394	142
16	2994	5.411827398394	144
16	3058	5.461827398394	146
16	3085	5.511827398394	148
16	3149	5.561827398394	150
16	3176	5.611827398394	152
16	3240	5.661827398394	154
16	3267	5.711827398394	156
16	3331	5.761827398394	158
16	3358	5.811827398394	160
16	3422	5.861827398394	162
16	3449	5.911827398394	164
16	3513	5.961827398394	166
16	3540	6.011827398394	168
16	3604	6.061827398394	170
16	3631	6.111827398394	172
16	3714	6.161827398394	174
16	3748	6.211827398394	176
16	3831	6.261827398394	178
16	3865	6.311827398394	180
16	3948	6.361827398394	182
16	3982	6.411827398394	184
16	4065	6.461827398394	186
16	4099	6.511827398394	188
16	4182	6.561827398394	190
16	4216	6.611827398394	192
16	4299	6.661827398394	194
16	4333	6.711827398394	196
16	4416	6.761827398394	198
16	4450	6.811827398394	200
16	4533	6.861827398394	202
16	4594	6.911827398394	205
16	4704	6.961827398394	208
16	4765	7.011827398394	211
16	4865	7.061827398394	214
16	4926	7.111827398394	217
16	5026	7.161827398394	220
16	5087	7.211827398394	223
16	5197	7.261827398394	226
16	5258	7.311827398394	229
16	5368	7.361827398394	232
16	5429	7.411827398394	235
16	5539	7.461827398394	238
16	5600	7.511827398394	241
16	5710	7.561827398394	244
16	5771	7.611827398394	247
16	5881	7.661827398394	250
16	5942	7.711827398394	253
16	6052	7.761827398394	256
16	6113	7.811827398394	259
16	6223	7.861827398394	262
16	6284	7.911827398394	265
16	6394	7.961827398394	268
16	6455	8.011827398394	271
16	6565	8.061827398394	274
16	6626	8.111827398394	277
16	6736	8.161827398394	280
16	6797	8.211827398394	283
16	6907	8.261827398394	286
16	6968	8.311827398394	289
16	7068	8.361827398394	292
16	7129	8.411827398394	295
16	7239	8.461827398394	298
16	7300	8.511827398394	301
16	7410	8.561827398394	304
16	7471	8.611827398394	307
16	7571	8.661827398394	310
16	7632	8.711827398394	313
16	7742	8.761827398394	316
16	7803	8.811827398394	319
16	7913	8.861827398394	322
16	7974	8.911827398394	325
16	8084	8.961827398394	328
16	8145	9.011827398394	331
16	8255	9.061827398394	334
16	8316	9.111827398394	337
16	8438	9.161827398394	340
16	8512	9.211827398394	343
16	8647	9.261827398394	346
16	8721	9.311827398394	349
16	8856	9.361827398394	352
16	8930	9.411827398394	355
16	9052	9.461827398394	358
16	9126	9.511827398394	361
16	9261	9.561827398394	364
16	9335	9.611827398394	367
16	9457	9.661827398394	370
16	9531	9.711827398394	373
16	9666	9.761827398394	376
16	9773	9.811827398394	380
16	9941	9.861827398394	384
16	10048	9.911827398394	388
16	10203	9.961827398394	392
16	10310	10.011827398394	396
16	10478	10.061827398394	400
16	10585	10.111827398394	404
16	10753	10.161827398394	408
16	10860	10.211827398394	412
16	11028	10.261827398394	416
16	11135	10.311827398394	420
16	11290	10.361827398394	424
16	11397	10.411827398394	428
16	11552	10.461827398394	432
16	11659	10.511827398394	436
16	11814	10.561827398394	440
16	11921	10.611827398394	444
16	12076	10.661827398394	448
16	12183	10.711827398394	452
16	12351	10.761827398394	456
16	12458	10.811827398394	460
16	12613	10.861827398394	464
16	12720	10.911827398394	468
16	12875	10.961827398394	472
16	12982	11.011827398394	476
16	13150	11.061827398394	480
16	13257	11.111827398394	484
16	13412	11.161827398394	488
16	13519	11.211827398394	492
16	13687	11.261827398394	496
16	13794	11.311827398394	500
16	13962	11.361827398394	504
16	14069	11.411827398394	508
16	14237	11.461827398394	512
16	14344	11.511827398394	516
16	14499	11.561827398394	520
16	14606	11.611827398394	524
16	14761	11.661827398394	528
16	14868	11.711827398394	532
16	15023	11.761827398394	536
16	15130	11.811827398394	540
16	15285	11.861827398394	544
16	15392	11.911827398394	548
16	15560	11.961827398394	552
16	15667	12.011827398394	556
16	15835	12.061827398394	560
16	15942	12.111827398394	564
16	16153	12.161827398394	569
16	16281	12.211827398394	574
16	16540	12.261827398394	579
16	16668	12.311827398394	584
16	16927	12.361827398394	589
16	17055	12.411827398394	594
16	17303	12.461827398394	599
16	17431	12.511827398394	604
16	17690	12.561827398394	609
16	17818	12.611827398394	614
16	18078	12.661827398394	619
16	18206	12.711827398394	624
16	18451	12.761827398394	629
16	18579	12.811827398394	634
16	18823	12.861827398394	639
16	18951	12.911827398394	644
16	19199	12.961827398394	649
16	19327	13.011827398394	654
16	19587	13.061827398394	659
16	19715	13.111827398394	664
16	19958	13.161827398394	669
16	20086	13.211827398394	674
16	20330	13.261827398394	679
16	20458	13.311827398394	684
16	20717	13.361827398394	689
16	20845	13.411827398394	694
16	21077	13.461827398394	699
16	21205	13.511827398394	704
16	21453	13.561827398394	709
16	21581	13.611827398394	714
16	21825	13.661827398394	719
16	21953	13.711827398394	724
16	22196	13.761827398394	729
16	22324	13.811827398394	734
16	22583	13.861827398394	739
16	22711	13.911827398394	744
16	22970	13.961827398394	749
16	23098	14.011827398394	754
16	23357	14.061827398394	759
16	23485	14.111827398394	764
16	23744	14.161827398394	769
16	23872	14.211827398394	774
16	24131	14.261827398394	779
16	24259	14.311827398394	784
16	24507	14.361827398394	789
16	24635	14.411827398394	794
16	24895	14.461827398394	799
16	25023	14.511827398394	804
16	25282	14.561827398394	809
16	25410	14.611827398394	814
16	25653	14.661827398394	819
16	25781	14.711827398394	824
16	26029	14.761827398394	829
16	26157	14.811827398394	834
16	26400	14.861827398394	839
16	26528	14.911827398394	844
16	26771	14.961827398394	849
16	26899	15.011827398394	854
16	27142	15.061827398394	859
16	27270	15.111827398394	864
16	27529	15.161827398394	869
16	27657	15.211827398394	874
16	27916	15.261827398394	879
16	28044	15.311827398394	884
16	28303	15.361827398394	889
16	28431	15.411827398394	894
16	28668	15.461827398394	899
16	28796	15.511827398394	904
16	29055	15.561827398394	909
16	29183	15.611827398394	914
16	29442	15.661827398394	919
16	29570	15.711827398394	924
16	29829	15.761827398394	929
16	29957	15.811827398394	934
16	30216	15.861827398394	939
16	30344	15.911827398394	944
16	30587	15.961827398394	949
16	30715	16.011827398394	954
16	30963	16.061827398394	959
16	31091	16.111827398394	964
16	31339	16.161827398394	969
16	31467	16.211827398394	974
16	31726	16.261827398394	979
16	31854	16.311827398394	984
16	32097	16.361827398394	989
16	32225	16.411827398394	994
16	32468	16.461827398394	999
16	32596	16.511827398394	1004
16	32855	16.561827398394	1009
16	32983	16.611827398394	1014
16	33242	16.661827398394	1019
16	33370	16.711827398394	1024
16	33602	16.761827398394	1029
16	33730	16.811827398394	1034
16	33978	16.861827398394	1039
16	34106	16.911827398394	1044
16	34349	16.961827398394	1049
16	34477	17.011827398394	1054
16	34720	17.061827398394	1059
16	34848	17.111827398394	1064
16	35107	17.161827398394	1069
16	35235	17.211827398394	1074
16	35483	17.261827398394	1079
16	35611	17.311827398394	1084
16	35854	17.361827398394	1089
16	35982	17.411827398394	1094
16	36230	17.461827398394	1099
16	36358	17.511827398394	1104
16	36617	17.561827398394	1109
16	36745	17.611827398394	1114
16	37004	17.661827398394	1119
16	37132	17.711827398394	1124
16	37375	17.761827398394	1129
16	37503	17.811827398394	1134
16	37746	17.861827398394	1139
16	37874	17.911827398394	1144
16	38133	17.961827398394	1149
16	38261	18.011827398394	1154
16	38509	18.061827398394	1159
16	38637	18.111827398394	1164
16	38880	18.161827398394	1169
16	39008	18.211827398394	1174
16	39251	18.261827398394	1179
16	39379	18.311827398394	1184
16	39638	18.361827398394	1189
16	39766	18.411827398394	1194
16	40014	18.461827398394	1199
16	40142	18.511827398394	1204
16	40401	18.561827398394	1209
16	40529	18.611827398394	1214
16	40788	18.661827398394	1219
16	40916	18.711827398394	1224
16	41175	18.761827398394	1229
16	41303	18.811827398394	1234
16	41551	18.861827398394	1239
16	41679	18.911827398394	1244
16	41922	18.961827398394	1249
16	42050	19.011827398394	1254
16	42309	19.061827398394	1259
16	42437	19.111827398394	1264
16	42685	19.161827398394	1269
16	42813	19.211827398394	1274
16	43056	19.261827398394	1279
16	43184	19.311827398394	1284
16	43443	19.361827398394	1289
16	43571	19.411827398394	1294
16	43830	19.461827398394	1299
16	43958	19.511827398394	1304
16	44206	19.561827398394	1309
16	44334	19.611827398394	1314
16	44593	19.661827398394	1319
16	44721	19.711827398394	1324
16	44980	19.761827398394	1329
16	45108	19.811827398394	1334
16	45367	19.861827398394	1339
16	45495	19.911827398394	1344
16	45743	19.961827398394	1349
16	45871	20.011827398394	1354
16	46114	20.061827398394	1359
16	46242	20.111827398394	1364
16	46501	20.161827398394	1369
16	46629	20.211827398394	1374
16	46872	20.261827398394	1379
16	47000	20.311827398394	1384
16	47259	20.361827398394	1389
16	47387	20.411827398394	1394
16	47646	20.461827398394	1399
16	47774	20.511827398394	1404
16	48049	20.561827398394	1409
16	48177	20.611827398394	1414
16	48425	20.661827398394	1419
16	48553	20.711827398394	1424
16	48796	20.761827398394	1429
16	48924	20.811827398394	1434
16	49172	20.861827398394	1439
16	49300	20.911827398394	1444
16	49548	20.961827398394	1449
16	49676	21.011827398394	1454
16	49919	21.061827398394	1459
16	50047	21.111827398394	1464
16	50322	21.161827398394	1469
16	50450	21.211827398394	1474
16	50698	21.261827398394	1479
16	50826	21.311827398394	1484
16	51085	21.361827398394	1489
16	51213	21.411827398394	1494
16	51461	21.461827398394	1499
16	51589	21.511827398394	1504
16	51848	21.561827398394	1509
16	51976	21.611827398394	1514
16	52251	21.661827398394	1519
16	52379	21.711827398394	1524
16	52622	21.761827398394	1529
16	52750	21.811827398394	1534
16	52993	21.861827398394	1539
16	53121	21.911827398394	1544
16	53369	21.961827398394	1549
16	53497	22.011827398394	1554
16	53729	22.061827398394	1559
16	53857	22.111827398394	1564
16	54116	22.161827398394	1569
16	54244	22.211827398394	1574
16	54503	22.261827398394	1579
16	54631	22.311827398394	1584
16	54879	22.361827398394	1589
16	55007	22.411827398394	1594
16	55266	22.461827398394	1599
16	55394	22.511827398394	1604
16	55637	22.561827398394	1609
16	55765	22.611827398394	1614
16	56024	22.661827398394	1619
16	56152	22.711827398394	1624
16	56411	22.761827398394	1629
16	56539	22.811827398394	1634
16	56782	22.861827398394	1639
16	56910	22.911827398394	1644
16	57169	22.961827398394	1649
16	57297	23.011827398394	1654
16	57556	23.061827398394	1659
16	57684	23.111827398394	1664
16	57943	23.161827398394	1669
16	58071	23.211827398394	1674
16	58330	23.261827398394	1679
16	58458	23.311827398394	1684
16	58717	23.361827398394	1689
16	58845	23.411827398394	1694
16	59104	23.461827398394	1699
16	59232	23.511827398394	1704
16	59480	23.561827398394	1709
16	59608	23.611827398394	1714
16	59851	23.661827398394	1719
16	59979	23.711827398394	1724
16	60238	23.761827398394	1729
16	60366	23.811827398394	1734
16	60609	23.861827398394	1739
16	60737	23.911827398394	1744
16	60996	23.961827398394	1749
16	61124	24.011827398394	1754
16	61383	24.061827398394	1759
16	61511	24.111827398394	1764
16	61770	24.161827398394	1769
16	61898	24.211827398394	1774
16	62157	24.261827398394	1779
16	62285	24.311827398394	1784
16	62528	24.361827398394	1789
16	62656	24.411827398394	1794
16	62915	24.461827398394	1799
16	63043	24.511827398394	1804
16	63302	24.561827398394	1809
16	63430	24.611827398394	1814
16	63689	24.661827398394	1819
16	63817	24.711827398394	1824
16	64065	24.761827398394	1829
16	64193	24.811827398394	1834
16	64436	24.861827398394	1839
16	64564	24.911827398394	1844
16	64801	24.961827398394	1849
16	64929	25.011827398394	1854
16	65188	25.061827398394	1859
16	65316	25.111827398394	1864
16	65575	25.161827398394	1869
16	65703	25.211827398394	1874
16	65946	25.261827398394	1879
16	66074	25.311827398394	1884
16	66333	25.361827398394	1889
16	66461	25.411827398394	1894
16	66720	25.461827398394	1899
16	66848	25.511827398394	1904
16	67096	25.561827398394	1909
16	67224	25.611827398394	1914
16	67472	25.661827398394	1919
16	67600	25.711827398394	1924
16	67859	25.761827398394	1929
16	67987	25.811827398394	1934
16	68246	25.861827398394	1939
16	68374	25.911827398394	1944
16	68649	25.961827398394	1949
16	68777	26.011827398394	1954
16	69052	26.061827398394	1959
16	69180	26.111827398394	1964
16	69423	26.161827398394	1969
16	69551	26.211827398394	1974
16	69799	26.261827398394	1979
16	69927	26.311827398394	1984
16	70170	26.361827398394	1989
16	70298	26.411827398394	1994
16	70546	26.461827398394	1999
16	70674	26.511827398394	2004
16	70922	26.561827398394	2009
16	71050	26.611827398394	2014
16	71293	26.661827398394	2019
16	71421	26.711827398394	2024
16	71664	26.761827398394	2029
16	71792	26.811827398394	2034
16	72029	26.861827398394	2039
16	72157	26.911827398394	2044
16	72405	26.961827398394	2049
16	72533	27.011827398394	2054
16	72781	27.061827398394	2059
16	72909	27.111827398394	2064
16	73157	27.161827398394	2069
16	73285	27.211827398394	2074
16	73544	27.261827398394	2079
16	73672	27.311827398394	2084
16	73931	27.361827398394	2089
16	74059	27.411827398394	2094
16	74318	27.461827398394	2099
16	74446	27.511827398394	2104
16	74689	27.561827398394	2109
16	74817	27.611827398394	2114
16	75076	27.661827398394	2119
16	75204	27.711827398394	2124
16	75463	27.761827398394	2129
16	75591	27.811827398394	2134
16	75823	27.861827398394	2139
16	75951	27.911827398394	2144
16	76199	27.961827398394	2149
16	76327	28.011827398394	2154
16	76575	28.061827398394	2159
16	76703	28.111827398394	2164
16	76946	28.161827398394	2169
16	77074	28.211827398394	2174
16	77333	28.261827398394	2179
16	77461	28.311827398394	2184
16	77720	28.361827398394	2189
16	77848	28.411827398394	2194
16	78091	28.461827398394	2199
16	78219	28.511827398394	2204
16	78478	28.561827398394	2209
16	78606	28.611827398394	2214
16	78865	28.661827398394	2219
16	78993	28.711827398394	2224
16	79241	28.761827398394	2229
16	79369	28.811827398394	2234
16	79612	28.861827398394	2239
16	79740	28.911827398394	2244
16	79988	28.961827398394	2249
16	80116	29.011827398394	2254
16	80375	29.061827398394	2259
16	80503	29.111827398394	2264
16	80762	29.161827398394	2269
16	80890	29.211827398394	2274
16	81149	29.261827398394	2279
16	81277	29.311827398394	2284
16	81525	29.361827398394	2289
16	81653	29.411827398394	2294
16	81912	29.461827398394	2299
16	82040	29.511827398394	2304
16	82283	29.561827398394	2309
16	82411	29.611827398394	2314
16	82670	29.661827398394	2319
16	82798	29.711827398394	2324
16	83057	29.761827398394	2329
16	83185	29.811827398394	2334
16	83444	29.861827398394	2339
16	83572	29.911827398394	2344
16	83831	29.961827398394	2349
16	83959	30.011827398394	2354
16	84202	30.061827398394	2359
16	84330	30.111827398394	2364
16	84573	30.161827398394	2369
16	84701	30.211827398394	2374
16	84960	30.261827398394	2379
16	85088	30.311827398394	2384
16	85347	30.361827398394	2389
16	85475	30.411827398394	2394
16	85750	30.461827398394	2399
16	85878	30.511827398394	2404
16	86137	30.561827398394	2409
16	86265	30.611827398394	2414
16	86508	30.661827398394	2419
16	86636	30.711827398394	2424
16	86895	30.761827398394	2429
16	87023	30.811827398394	2434
16	87271	30.861827398394	2439
16	87399	30.911827398394	2444
16	87658	30.961827398394	2449
16	87786	31.011827398394	2454
16	88045	31.061827398394	2459
16	88173	31.111827398394	2464
16	88432	31.161827398394	2469
16	88560	31.211827398394	2474
16	88808	31.261827398394	2479
16	88936	31.311827398394	2484
16	89179	31.361827398394	2489
16	89307	31.411827398394	2494
16	89566	31.461827398394	2499
16	89694	31.511827398394	2504
16	89937	31.561827398394	2509
16	90065	31.611827398394	2514
16	90324	31.661827398394	2519
16	90452	31.711827398394	2524
16	90700	31.761827398394	2529
16	90828	31.811827398394	2534
16	91087	31.861827398394	2539
16	91215	31.911827398394	2544
16	91458	31.961827398394	2549
16	91586	32.011827398394	2554
16	91845	32.061827398394	2559
16	91973	32.111827398394	2564
16	92221	32.161827398394	2569
16	92349	32.211827398394	2574
16	92608	32.261827398394	2579
16	92736	32.311827398394	2584
16	92984	32.361827398394	2589
16	93112	32.411827398394	2594
16	93371	32.461827398394	2599
16	93499	32.511827398394	2604
16	93758	32.561827398394	2609
16	93886	32.611827398394	2614
16	94134	32.661827398394	2619
16	94262	32.711827398394	2624
16	94537	32.761827398394	2629
16	94665	32.811827398394	2634
16	94924	32.861827398394	2639
16	95052	32.911827398394	2644
16	95284	32.961827398394	2649
16	95412	33.011827398394	2654
16	95671	33.061827398394	2659
16	95799	33.111827398394	2664
16	96058	33.161827398394	2669
16	96186	33.211827398394	2674
16	96434	33.261827398394	2679
16	96562	33.311827398394	2684
16	96805	33.361827398394	2689
16	96933	33.411827398394	2694
16	97176	33.461827398394	2699
16	97304	33.511827398394	2704
16	97547	33.561827398394	2709
16	97675	33.611827398394	2714
16	97923	33.661827398394	2719
16	98051	33.711827398394	2724
16	98326	33.761827398394	2729
16	98454	33.811827398394	2734
16	98713	33.861827398394	2739
16	98841	33.911827398394	2744
16	99100	33.961827398394	2749
16	99228	34.011827398394	2754
16	99487	34.061827398394	2759
16	99615	34.111827398394	2764
16	99874	34.161827398394	2769
16	100002	34.211827398394	2774
16	100261	34.261827398394	2779
16	100389	34.311827398394	2784
16	100632	34.361827398394	2789
16	100760	34.411827398394	2794
16	101008	34.461827398394	2799
16	101136	34.511827398394	2804
16	101384	34.561827398394	2809
16	101512	34.611827398394	2814
16	101771	34.661827398394	2819
16	101899	34.711827398394	2824
16	102158	34.761827398394	2829
16	102286	34.811827398394	2834
16	102545	34.861827398394	2839
16	102673	34.911827398394	2844
16	102932	34.961827398394	2849
16	103060	35.011827398394	2854
16	103335	35.061827398394	2859
16	103463	35.111827398394	2864
16	103711	35.161827398394	2869
16	103839	35.211827398394	2874
16	104087	35.261827398394	2879
16	104215	35.311827398394	2884
16	104474	35.361827398394	2889
16	104602	35.411827398394	2894
16	104850	35.461827398394	2899
16	104978	35.511827398394	2904
16	105221	35.561827398394	2909
16	105349	35.611827398394	2914
16	105608	35.661827398394	2919
16	105736	35.711827398394	2924
16	105984	35.761827398394	2929
16	106112	35.811827398394	2934
16	106355	35.861827398394	2939
16	106483	35.911827398394	2944
16	106742	35.961827398394	2949
16	106870	36.011827398394	2954
16	107113	36.061827398394	2959
16	107241	36.111827398394	2964
16	107500	36.161827398394	2969
16	107628	36.211827398394	2974
16	107887	36.261827398394	2979
16	108015	36.311827398394	2984
16	108274	36.361827398394	2989
16	108402	36.411827398394	2994
16	108645	36.461827398394	2999
16	108773	36.511827398394	3004
16	109048	36.561827398394	3009
16	109176	36.611827398394	3014
16	109435	36.661827398394	3019
16	109563	36.711827398394	3024
16	109806	36.761827398394	3029
16	109934	36.811827398394	3034
16	110182	36.861827398394	3039
16	110310	36.911827398394	3044
16	110569	36.961827398394	3049
16	110697	37.011827398394	3054
16	110956	37.061827398394	3059
16	111084	37.111827398394	3064
16	111327	37.161827398394	3069
16	111455	37.211827398394	3074
16	111714	37.261827398394	3079
16	111842	37.311827398394	3084
16	112101	37.361827398394	3089
16	112229	37.411827398394	3094
16	112488	37.461827398394	3099
16	112616	37.511827398394	3104
16	112859	37.561827398394	3109
16	112987	37.611827398394	3114
16	113230	37.661827398394	3119
16	113358	37.711827398394	3124
16	113601	37.761827398394	3129
16	113729	37.811827398394	3134
16	113977	37.861827398394	3139
16	114105	37.911827398394	3144
16	114364	37.961827398394	3149
16	114492	38.011827398394	3154
16	114724	38.061827398394	3159
16	114852	38.111827398394	3164
16	115100	38.161827398394	3169
16	115228	38.211827398394	3174
16	115487	38.261827398394	3179
16	115615	38.311827398394	3184
16	115863	38.361827398394	3189
16	115991	38.411827398394	3194
16	116239	38.461827398394	3199
16	116367	38.511827398394	3204
16	116615	38.561827398394	3209
16	116743	38.611827398394	3214
16	117002	38.661827398394	3219
16	117130	38.711827398394	3224
16	117389	38.761827398394	3229
16	117517	38.811827398394	3234
16	117776	38.861827398394	3239
16	117904	38.911827398394	3244
16	118152	38.961827398394	3249
16	118280	39.011827398394	3254
16	118523	39.061827398394	3259
16	118651	39.111827398394	3264
16	118910	39.161827398394	3269
16	119038	39.211827398394	3274
16	119286	39.261827398394	3279
16	119414	39.311827398394	3284
16	119673	39.361827398394	3289
16	119801	39.411827398394	3294
16	120049	39.461827398394	3299
16	120177	39.511827398394	3304
16	120425	39.561827398394	3309
16	120553	39.611827398394	3314
16	120796	39.661827398394	3319
16	120924	39.711827398394	3324
16	121167	39.761827398394	3329
16	121295	39.811827398394	3334
16	121538	39.861827398394	3339
16	121666	39.911827398394	3344
16	121925	39.961827398394	3349
16	122053	40.011827398394	3354
16	122312	40.061827398394	3359
16	122440	40.111827398394	3364
16	122683	40.161827398394	3369
16	122811	40.211827398394	3374
16	123070	40.261827398394	3379
16	123198	40.311827398394	3384
16	123441	40.361827398394	3389
16	123569	40.411827398394	3394
16	123817	40.461827398394	3399
16	123945	40.511827398394	3404
16	124204	40.561827398394	3409
16	124332	40.611827398394	3414
16	124575	40.661827398394	3419
16	124703	40.711827398394	3424
16	124951	40.761827398394	3429
16	125079	40.811827398394	3434
16	125338	40.861827398394	3439
16	125466	40.911827398394	3444
16	125725	40.961827398394	3449
16	125853	41.011827398394	3454
16	126112	41.061827398394	3459
16	126240	41.111827398394	3464
16	126483	41.161827398394	3469
16	126611	41.211827398394	3474
16	126870	41.261827398394	3479
16	126998	41.311827398394	3484
16	127257	41.361827398394	3489
16	127385	41.411827398394	3494
16	127628	41.461827398394	3499
16	127756	41.511827398394	3504
16	127999	41.561827398394	3509
16	128127	41.611827398394	3514
16	128370	41.661827398394	3519
16	128498	41.711827398394	3524
16	128746	41.761827398394	3529
16	128874	41.811827398394	3534
16	129133	41.861827398394	3539
16	129261	41.911827398394	3544
16	129520	41.961827398394	3549
16	129648	42.011827398394	3554
16	129907	42.061827398394	3559
16	130035	42.111827398394	3564
16	130278	42.161827398394	3569
16	130406	42.211827398394	3574
16	130665	42.261827398394	3579
16	130793	42.311827398394	3584
16	131052	42.361827398394	3589
16	131180	42.411827398394	3594
16	131423	42.461827398394	3599
16	131551	42.511827398394	3604
16	131794	42.561827398394	3609
16	131922	42.611827398394	3614
16	132170	42.661827398394	3619
16	132298	42.711827398394	3624
16	132557	42.761827398394	3629
16	132685	42.811827398394	3634
16	132933	42.861827398394	3639
16	133061	42.911827398394	3644
16	133320	42.961827398394	3649
16	133448	43.011827398394	3654
16	133723	43.061827398394	3659
16	133851	43.111827398394	3664
16	134110	43.161827398394	3669
16	134238	43.211827398394	3674
16	134470	43.261827398394	3679
16	134598	43.311827398394	3684
16	134846	43.361827398394	3689
16	134974	43.411827398394	3694
16	135222	43.461827398394	3699
16	135350	43.511827398394	3704
16	135593	43.561827398394	3709
16	135721	43.611827398394	3714
16	135969	43.661827398394	3719
16	136097	43.711827398394	3724
16	136356	43.761827398394	3729
16	136484	43.811827398394	3734
16	136727	43.861827398394	3739
16	136855	43.911827398394	3744
16	137114	43.961827398394	3749
16	137242	44.011827398394	3754
16	137501	44.061827398394	3759
16	137629	44.111827398394	3764
16	137877	44.161827398394	3769
16	138005	44.211827398394	3774
16	138253	44.261827398394	3779
16	138381	44.311827398394	3784
16	138624	44.361827398394	3789
16	138752	44.411827398394	3794
16	138995	44.461827398394	3799
16	139123	44.511827398394	3804
16	139382	44.561827398394	3809
16	139510	44.611827398394	3814
16	139742	44.661827398394	3819
16	139870	44.711827398394	3824
16	140113	44.761827398394	3829
16	140241	44.811827398394	3834
16	140500	44.861827398394	3839
16	140628	44.911827398394	3844
16	140887	44.961827398394	3849
16	141015	45.011827398394	3854
16	141274	45.061827398394	3859
16	141402	45.111827398394	3864
16	141650	45.161827398394	3869
16	141778	45.211827398394	3874
16	142053	45.261827398394	3879
16	142181	45.311827398394	3884
16	142429	45.361827398394	3889
16	142557	45.411827398394	3894
16	142800	45.461827398394	3899
16	142928	45.511827398394	3904
16	143176	45.561827398394	3909
16	143304	45.611827398394	3914
16	143563	45.661827398394	3919
16	143691	45.711827398394	3924
16	143950	45.761827398394	3929
16	144078	45.811827398394	3934
16	144337	45.861827398394	3939
16	144465	45.911827398394	3944
16	144724	45.961827398394	3949
16	144852	46.011827398394	3954
16	145100	46.061827398394	3959
16	145228	46.111827398394	3964
16	145465	46.161827398394	3969
16	145593	46.211827398394	3974
16	145868	46.261827398394	3979
16	145996	46.311827398394	3984
16	146244	46.361827398394	3989
16	146372	46.411827398394	3994
16	146620	46.461827398394	3999
16	146748	46.511827398394	4004
16	147007	46.561827398394	4009
16	147135	46.611827398394	4014
16	147394	46.661827398394	4019
16	147522	46.711827398394	4024
16	147781	46.761827398394	4029
16	147909	46.811827398394	4034
16	148168	46.861827398394	4039
16	148296	46.911827398394	4044
16	148544	46.961827398394	4049
16	148672	47.011827398394	4054
16	148931	47.061827398394	4059
16	149059	47.111827398394	4064
16	149318	47.161827398394	4069
16	149446	47.211827398394	4074
16	149694	47.261827398394	4079
16	149822	47.311827398394	4084
16	150065	47.361827398394	4089
16	150193	47.411827398394	4094
16	150436	47.461827398394	4099
16	150564	47.511827398394	4104
16	150823	47.561827398394	4109
16	150951	47.611827398394	4114
16	151194	47.661827398394	4119
16	151322	47.711827398394	4124
16	151565	47.761827398394	4129
16	151693	47.811827398394	4134
16	151941	47.861827398394	4139
16	152069	47.911827398394	4144
16	152328	47.961827398394	4149
16	152456	48.011827398394	4154
16	152715	48.061827398394	4159
16	152843	48.111827398394	4164
16	153086	48.161827398394	4169
16	153214	48.211827398394	4174
16	153462	48.261827398394	4179
16	153590	48.311827398394	4184
16	153849	48.361827398394	4189
16	153977	48.411827398394	4194
16	154236	48.461827398394	4199
16	154364	48.511827398394	4204
16	154623	48.561827398394	4209
16	154751	48.611827398394	4214
16	155010	48.661827398394	4219
16	155138	48.711827398394	4224
16	155397	48.761827398394	4229
16	155525	48.811827398394	4234
16	155784	48.861827398394	4239
16	155912	48.911827398394	4244
16	156160	48.961827398394	4249
16	156288	49.011827398394	4254
16	156536	49.061827398394	4259
16	156664	49.111827398394	4264
16	156923	49.161827398394	4269
16	157051	49.211827398394	4274
16	157310	49.261827398394	4279
16	157438	49.311827398394	4284
16	157697	49.361827398394	4289
16	157825	49.411827398394	4294
16	158084	49.461827398394	4299
16	158212	49.511827398394	4304
16	158471	49.561827398394	4309
16	158599	49.611827398394	4314
16	158858	49.661827398394	4319
16	158986	49.711827398394	4324
16	159229	49.761827398394	4329
16	159357	49.811827398394	4334
16	159616	49.861827398394	4339
16	159744	49.911827398394	4344
16	159987	49.961827398394	4349
16	160115	50.011827398394	4354
16	160374	50.061827398394	4359
16	160502	50.111827398394	4364
16	160761	50.161827398394	4369
16	160889	50.211827398394	4374
16	161132	50.261827398394	4379
16	161260	50.311827398394	4384
16	161503	50.361827398394	4389
16	161631	50.411827398394	4394
16	161874	50.461827398394	4399
16	162002	50.511827398394	4404
16	162245	50.561827398394	4409
16	162373	50.611827398394	4414
16	162621	50.661827398394	4419
16	162749	50.711827398394	4424
16	162997	50.761827398394	4429
16	163125	50.811827398394	4434
16	163373	50.861827398394	4439
16	163501	50.911827398394	4444
16	163749	50.961827398394	4449
16	163877	51.011827398394	4454
16	164120	51.061827398394	4459
16	164248	51.111827398394	4464
16	164523	51.161827398394	4469
16	164651	51.211827398394	4474
16	164899	51.261827398394	4479
16	165027	51.311827398394	4484
16	165286	51.361827398394	4489
16	165414	51.411827398394	4494
16	165657	51.461827398394	4499
16	165785	51.511827398394	4504
16	166044	51.561827398394	4509
16	166172	51.611827398394	4514
16	166420	51.661827398394	4519
16	166548	51.711827398394	4524
16	166807	51.761827398394	4529
16	166935	51.811827398394	4534
16	167183	51.861827398394	4539
16	167311	51.911827398394	4544
16	167570	51.961827398394	4549
16	167698	52.011827398394	4554
16	167957	52.061827398394	4559
16	168085	52.111827398394	4564
16	168344	52.161827398394	4569
16	168472	52.211827398394	4574
16	168731	52.261827398394	4579
16	168859	52.311827398394	4584
16	169118	52.361827398394	4589
16	169246	52.411827398394	4594
16	169505	52.461827398394	4599
16	169633	52.511827398394	4604
16	169892	52.561827398394	4609
16	170020	52.611827398394	4614
16	170279	52.661827398394	4619
16	170407	52.711827398394	4624
16	170655	52.761827398394	4629
16	170783	52.811827398394	4634
16	171031	52.861827398394	4639
16	171159	52.911827398394	4644
16	171391	52.961827398394	4649
16	171519	53.011827398394	4654
16	171762	53.061827398394	4659
16	171890	53.111827398394	4664
16	172133	53.161827398394	4669
16	172261	53.211827398394	4674
16	172509	53.261827398394	4679
16	172637	53.311827398394	4684
16	172880	53.361827398394	4689
16	173008	53.411827398394	4694
16	173267	53.461827398394	4699
16	173395	53.511827398394	4704
16	173643	53.561827398394	4709
16	173771	53.611827398394	4714
16	174030	53.661827398394	4719
16	174158	53.711827398394	4724
16	174417	53.761827398394	4729
16	174545	53.811827398394	4734
16	174804	53.861827398394	4739
16	174932	53.911827398394	4744
16	175191	53.961827398394	4749
16	175319	54.011827398394	4754
16	175578	54.061827398394	4759
16	175706	54.111827398394	4764
16	175949	54.161827398394	4769
16	176077	54.211827398394	4774
16	176336	54.261827398394	4779
16	176464	54.311827398394	4784
16	176723	54.361827398394	4789
16	176851	54.411827398394	4794
16	177099	54.461827398394	4799
16	177227	54.511827398394	4804
16	177486	54.561827398394	4809
16	177614	54.611827398394	4814
16	177873	54.661827398394	4819
16	178001	54.711827398394	4824
16	178260	54.761827398394	4829
16	178388	54.811827398394	4834
16	178636	54.861827398394	4839
16	178764	54.911827398394	4844
16	179023	54.961827398394	4849
16	179151	55.011827398394	4854
16	179426	55.061827398394	4859
16	179554	55.111827398394	4864
16	179813	55.161827398394	4869
16	179941	55.211827398394	4874
16	180184	55.261827398394	4879
16	180312	55.311827398394	4884
16	180555	55.361827398394	4889
16	180683	55.411827398394	4894
16	180942	55.461827398394	4899
16	181070	55.511827398394	4904
16	181329	55.561827398394	4909
16	181457	55.611827398394	4914
16	181716	55.661827398394	4919
16	181844	55.711827398394	4924
16	182092	55.761827398394	4929
16	182220	55.811827398394	4934
16	182468	55.861827398394	4939
16	182596	55.911827398394	4944
16	182855	55.961827398394	4949
16	182983	56.011827398394	4954
16	183226	56.061827398394	4959
16	183354	56.111827398394	4964
16	183597	56.161827398394	4969
16	183725	56.211827398394	4974
16	183973	56.261827398394	4979
16	184101	56.311827398394	4984
16	184344	56.361827398394	4989
16	184472	56.411827398394	4994
16	184747	56.461827398394	4999
16	184875	56.511827398394	5004
16	185134	56.561827398394	5009
16	185262	56.611827398394	5014
16	185499	56.661827398394	5019
16	185627	56.711827398394	5024
16	185886	56.761827398394	5029
16	186014	56.811827398394	5034
16	186246	56.861827398394	5039
16	186374	56.911827398394	5044
16	186617	56.961827398394	5049
16	186745	57.011827398394	5054
16	187004	57.061827398394	5059
16	187132	57.111827398394	5064
16	187380	57.161827398394	5069
16	187508	57.211827398394	5074
16	187756	57.261827398394	5079
16	187884	57.311827398394	5084
16	188143	57.361827398394	5089
16	188271	57.411827398394	5094
16	188530	57.461827398394	5099
16	188658	57.511827398394	5104
16	188917	57.561827398394	5109
16	189045	57.611827398394	5114
16	189304	57.661827398394	5119
16	189432	57.711827398394	5124
16	189680	57.761827398394	5129
16	189808	57.811827398394	5134
16	190045	57.861827398394	5139
16	190173	57.911827398394	5144
16	190421	57.961827398394	5149
16	190549	58.011827398394	5154
16	190824	58.061827398394	5159
16	190952	58.111827398394	5164
16	191211	58.161827398394	5169
16	191339	58.211827398394	5174
16	191598	58.261827398394	5179
16	191726	58.311827398394	5184
16	191985	58.361827398394	5189
16	192113	58.411827398394	5194
16	192356	58.461827398394	5199
16	192484	58.511827398394	5204
16	192716	58.561827398394	5209
16	192844	58.611827398394	5214
16	193087	58.661827398394	5219
16	193215	58.711827398394	5224
16	193463	58.761827398394	5229
16	193591	58.811827398394	5234
16	193850	58.861827398394	5239
16	193978	58.911827398394	5244
16	194237	58.961827398394	5249
16	194365	59.011827398394	5254
16	194624	59.061827398394	5259
16	194752	59.111827398394	5264
16	195011	59.161827398394	5269
16	195139	59.211827398394	5274
16	195414	59.261827398394	5279
16	195542	59.311827398394	5284
16	195801	59.361827398394	5289
16	195929	59.411827398394	5294
16	196166	59.461827398394	5299
16	196294	59.511827398394	5304
16	196542	59.561827398394	5309
16	196670	59.611827398394	5314
16	196918	59.661827398394	5319
16	197046	59.711827398394	5324
16	197289	59.761827398394	5329
16	197417	59.811827398394	5334
16	197665	59.861827398394	5339
16	197793	59.911827398394	5344
16	198041	59.961827398394	5349
16	198169	60.011827398394	5354
16	198428	60.061827398394	5359
16	198556	60.111827398394	5364
16	198815	60.161827398394	5369
16	198943	60.211827398394	5374
16	199186	60.261827398394	5379
16	199314	60.311827398394	5384
16	199573	60.361827398394	5389
16	199701	60.411827398394	5394
16	199944	60.461827398394	5399
16	200072	60.511827398394	5404
[...]
14	140236	44.800253279723	0.002
14	140252	44.850253279723	0.001
14	140623	44.900253279723	0.002
14	140639	44.950253279723	0.001
14	141010	45.000253279723	0.002
14	141026	45.050253279723	0.001
14	141397	45.100253279723	0.002
14	141413	45.150253279723	0.001
14	141773	45.200253279723	0.002
14	141789	45.250253279723	0.001
14	142176	45.300253279723	0.002
14	142192	45.350253279723	0.001
14	142552	45.400253279723	0.002
14	142568	45.450253279723	0.001
14	142923	45.500253279723	0.002
14	142939	45.550253279723	0.001
14	143299	45.600253279723	0.002
14	143315	45.650253279723	0.001
14	143686	45.700253279723	0.002
14	143702	45.750253279723	0.001
14	144073	45.800253279723	0.002
14	144089	45.850253279723	0.001
14	144460	45.900253279723	0.002
14	144476	45.950253279723	0.001
14	144847	46.000253279723	0.002
14	144863	46.050253279723	0.001
14	145223	46.100253279723	0.002
14	145239	46.150253279723	0.001
14	145588	46.200253279723	0.002
14	145604	46.250253279723	0.001
14	145991	46.300253279723	0.002
14	146007	46.350253279723	0.001
14	146367	46.400253279723	0.002
14	146383	46.450253279723	0.001
14	146743	46.500253279723	0.002
14	146759	46.550253279723	0.001
14	147130	46.600253279723	0.002
14	147146	46.650253279723	0.001
14	147517	46.700253279723	0.002
14	147533	46.750253279723	0.001
14	147904	46.800253279723	0.002
14	147920	46.850253279723	0.001
14	148291	46.900253279723	0.002
14	148307	46.950253279723	0.001
14	148667	47.000253279723	0.002
14	148683	47.050253279723	0.001
14	149054	47.100253279723	0.002
14	149070	47.150253279723	0.001
14	149441	47.200253279723	0.002
14	149457	47.250253279723	0.001
14	149817	47.300253279723	0.002
14	149833	47.350253279723	0.001
14	150188	47.400253279723	0.002
14	150204	47.450253279723	0.001
14	150559	47.500253279723	0.002
14	150575	47.550253279723	0.001
14	150946	47.600253279723	0.002
14	150962	47.650253279723	0.001
14	151317	47.700253279723	0.002
14	151333	47.750253279723	0.001
14	151688	47.800253279723	0.002
14	151704	47.850253279723	0.001
14	152064	47.900253279723	0.002
14	152080	47.950253279723	0.001
14	152451	48.000253279723	0.002
14	152467	48.050253279723	0.001
14	152838	48.100253279723	0.002
14	152854	48.150253279723	0.001
14	153209	48.200253279723	0.002
14	153225	48.250253279723	0.001
14	153585	48.300253279723	0.002
14	153601	48.350253279723	0.001
14	153972	48.400253279723	0.002
14	153988	48.450253279723	0.001
14	154359	48.500253279723	0.002
14	154375	48.550253279723	0.001
14	154746	48.600253279723	0.002
14	154762	48.650253279723	0.001
14	155133	48.700253279723	0.002
14	155149	48.750253279723	0.001
14	155520	48.800253279723	0.002
14	155536	48.850253279723	0.001
14	155907	48.900253279723	0.002
14	155923	48.950253279723	0.001
14	156283	49.000253279723	0.002
14	156299	49.050253279723	0.001
14	156659	49.100253279723	0.002
14	156675	49.150253279723	0.001
14	157046	49.200253279723	0.002
14	157062	49.250253279723	0.001
14	157433	49.300253279723	0.002
14	157449	49.350253279723	0.001
14	157820	49.400253279723	0.002
14	157836	49.450253279723	0.001
14	158207	49.500253279723	0.002
14	158223	49.550253279723	0.001
14	158594	49.600253279723	0.002
14	158610	49.650253279723	0.001
14	158981	49.700253279723	0.002
14	158997	49.750253279723	0.001
14	159352	49.800253279723	0.002
14	159368	49.850253279723	0.001
14	159739	49.900253279723	0.002
14	159755	49.950253279723	0.001
14	160110	50.000253279723	0.002
14	160126	50.050253279723	0.001
14	160497	50.100253279723	0.002
14	160513	50.150253279723	0.001
14	160884	50.200253279723	0.002
14	160900	50.250253279723	0.001
14	161255	50.300253279723	0.002
14	161271	50.350253279723	0.001
14	161626	50.400253279723	0.002
14	161642	50.450253279723	0.001
14	161997	50.500253279723	0.002
14	162013	50.550253279723	0.001
14	162368	50.600253279723	0.002
14	162384	50.650253279723	0.001
14	162744	50.700253279723	0.002
14	162760	50.750253279723	0.001
14	163120	50.800253279723	0.002
14	163136	50.850253279723	0.001
14	163496	50.900253279723	0.002
14	163512	50.950253279723	0.001
14	163872	51.000253279723	0.002
14	163888	51.050253279723	0.001
14	164243	51.100253279723	0.002
14	164259	51.150253279723	0.001
14	164646	51.200253279723	0.002
14	164662	51.250253279723	0.001
14	165022	51.300253279723	0.002
14	165038	51.350253279723	0.001
14	165409	51.400253279723	0.002
14	165425	51.450253279723	0.001
14	165780	51.500253279723	0.002
14	165796	51.550253279723	0.001
14	166167	51.600253279723	0.002
14	166183	51.650253279723	0.001
14	166543	51.700253279723	0.002
14	166559	51.750253279723	0.001
14	166930	51.800253279723	0.002
14	166946	51.850253279723	0.001
14	167306	51.900253279723	0.002
14	167322	51.950253279723	0.001
14	167693	52.000253279723	0.002
14	167709	52.050253279723	0.001
14	168080	52.100253279723	0.002
14	168096	52.150253279723	0.001
14	168467	52.200253279723	0.002
14	168483	52.250253279723	0.001
14	168854	52.300253279723	0.002
14	168870	52.350253279723	0.001
14	169241	52.400253279723	0.002
14	169257	52.450253279723	0.001
14	169628	52.500253279723	0.002
14	169644	52.550253279723	0.001
14	170015	52.600253279723	0.002
14	170031	52.650253279723	0.001
14	170402	52.700253279723	0.002
14	170418	52.750253279723	0.001
14	170778	52.800253279723	0.002
14	170794	52.850253279723	0.001
14	171154	52.900253279723	0.002
14	171170	52.950253279723	0.001
14	171514	53.000253279723	0.002
14	171530	53.050253279723	0.001
14	171885	53.100253279723	0.002
14	171901	53.150253279723	0.001
14	172256	53.200253279723	0.002
14	172272	53.250253279723	0.001
14	172632	53.300253279723	0.002
14	172648	53.350253279723	0.001
14	173003	53.400253279723	0.002
14	173019	53.450253279723	0.001
14	173390	53.500253279723	0.002
14	173406	53.550253279723	0.001
14	173766	53.600253279723	0.002
14	173782	53.650253279723	0.001
14	174153	53.700253279723	0.002
14	174169	53.750253279723	0.001
14	174540	53.800253279723	0.002
14	174556	53.850253279723	0.001
14	174927	53.900253279723	0.002
14	174943	53.950253279723	0.001
14	175314	54.000253279723	0.002
14	175330	54.050253279723	0.001
14	175701	54.100253279723	0.002
14	175717	54.150253279723	0.001
14	176072	54.200253279723	0.002
14	176088	54.250253279723	0.001
14	176459	54.300253279723	0.002
14	176475	54.350253279723	0.001
14	176846	54.400253279723	0.002
14	176862	54.450253279723	0.001
14	177222	54.500253279723	0.002
14	177238	54.550253279723	0.001
14	177609	54.600253279723	0.002
14	177625	54.650253279723	0.001
14	177996	54.700253279723	0.002
14	178012	54.750253279723	0.001
14	178383	54.800253279723	0.002
14	178399	54.850253279723	0.001
14	178759	54.900253279723	0.002
14	178775	54.950253279723	0.001
14	179146	55.000253279723	0.002
14	179162	55.050253279723	0.001
14	179549	55.100253279723	0.002
14	179565	55.150253279723	0.001
14	179936	55.200253279723	0.002
14	179952	55.250253279723	0.001
14	180307	55.300253279723	0.002
14	180323	55.350253279723	0.001
14	180678	55.400253279723	0.002
14	180694	55.450253279723	0.001
14	181065	55.500253279723	0.002
14	181081	55.550253279723	0.001
14	181452	55.600253279723	0.002
14	181468	55.650253279723	0.001
14	181839	55.700253279723	0.002
14	181855	55.750253279723	0.001
14	182215	55.800253279723	0.002
14	182231	55.850253279723	0.001
14	182591	55.900253279723	0.002
14	182607	55.950253279723	0.001
14	182978	56.000253279723	0.002
14	182994	56.050253279723	0.001
14	183349	56.100253279723	0.002
14	183365	56.150253279723	0.001
14	183720	56.200253279723	0.002
14	183736	56.250253279723	0.001
14	184096	56.300253279723	0.002
14	184112	56.350253279723	0.001
14	184467	56.400253279723	0.002
14	184483	56.450253279723	0.001
14	184870	56.500253279723	0.002
14	184886	56.550253279723	0.001
14	185257	56.600253279723	0.002
14	185273	56.650253279723	0.001
14	185622	56.700253279723	0.002
14	185638	56.750253279723	0.001
14	186009	56.800253279723	0.002
14	186025	56.850253279723	0.001
14	186369	56.900253279723	0.002
14	186385	56.950253279723	0.001
14	186740	57.000253279723	0.002
14	186756	57.050253279723	0.001
14	187127	57.100253279723	0.002
14	187143	57.150253279723	0.001
14	187503	57.200253279723	0.002
14	187519	57.250253279723	0.001
14	187879	57.300253279723	0.002
14	187895	57.350253279723	0.001
14	188266	57.400253279723	0.002
14	188282	57.450253279723	0.001
14	188653	57.500253279723	0.002
14	188669	57.550253279723	0.001
14	189040	57.600253279723	0.002
14	189056	57.650253279723	0.001
14	189427	57.700253279723	0.002
14	189443	57.750253279723	0.001
14	189803	57.800253279723	0.002
14	189819	57.850253279723	0.001
14	190168	57.900253279723	0.002
14	190184	57.950253279723	0.001
14	190544	58.000253279723	0.002
14	190560	58.050253279723	0.001
14	190947	58.100253279723	0.002
14	190963	58.150253279723	0.001
14	191334	58.200253279723	0.002
14	191350	58.250253279723	0.001
14	191721	58.300253279723	0.002
14	191737	58.350253279723	0.001
14	192108	58.400253279723	0.002
14	192124	58.450253279723	0.001
14	192479	58.500253279723	0.002
14	192495	58.550253279723	0.001
14	192839	58.600253279723	0.002
14	192855	58.650253279723	0.001
14	193210	58.700253279723	0.002
14	193226	58.750253279723	0.001
14	193586	58.800253279723	0.002
14	193602	58.850253279723	0.001
14	193973	58.900253279723	0.002
14	193989	58.950253279723	0.001
14	194360	59.000253279723	0.002
14	194376	59.050253279723	0.001
14	194747	59.100253279723	0.002
14	194763	59.150253279723	0.001
14	195134	59.200253279723	0.002
14	195150	59.250253279723	0.001
14	195537	59.300253279723	0.002
14	195553	59.350253279723	0.001
14	195924	59.400253279723	0.002
14	195940	59.450253279723	0.001
14	196289	59.500253279723	0.002
14	196305	59.550253279723	0.001
14	196665	59.600253279723	0.002
14	196681	59.650253279723	0.001
14	197041	59.700253279723	0.002
14	197057	59.750253279723	0.001
14	197412	59.800253279723	0.002
14	197428	59.850253279723	0.001
14	197788	59.900253279723	0.002
14	197804	59.950253279723	0.001
14	198164	60.000253279723	0.002
14	198180	60.050253279723	0.001
14	198551	60.100253279723	0.002
14	198567	60.150253279723	0.001
14	198938	60.200253279723	0.002
14	198954	60.250253279723	0.001
14	199309	60.300253279723	0.002
14	199325	60.350253279723	0.001
14	199696	60.400253279723	0.002
14	199712	60.450253279723	0.001
14	200067	60.500253279723	0.002
14	200083	60.550253279723	0.001
14	200432	60.600253279723	0.002
14	200448	60.650253279723	0.001
14	200803	60.700253279723	0.002
14	200819	60.750253279723	0.001
14	201174	60.800253279723	0.002
14	201190	60.850253279723	0.001
14	201561	60.900253279723	0.002
14	201577	60.950253279723	0.001
14	201948	61.000253279723	0.002
14	201964	61.050253279723	0.001
14	202335	61.100253279723	0.002
14	202351	61.150253279723	0.001
14	202711	61.200253279723	0.002
14	202727	61.250253279723	0.001
14	203087	61.300253279723	0.002
14	203103	61.350253279723	0.001
14	203458	61.400253279723	0.002
14	203474	61.450253279723	0.001
14	203829	61.500253279723	0.002
14	203845	61.550253279723	0.001
14	204205	61.600253279723	0.002
14	204221	61.650253279723	0.001
14	204575	61.700253279723	0.002
14	204588	61.750253279723	0.001
14	204837	61.800253279723	0.002
14	204850	61.850253279723	0.001
14	205099	61.900253279723	0.002
14	205112	61.950253279723	0.001
14	205361	62.000253279723	0.002
14	205374	62.050253279723	0.001
14	205623	62.100253279723	0.002
14	205636	62.150253279723	0.001
14	205898	62.200253279723	0.002
14	205911	62.250253279723	0.001
14	206173	62.300253279723	0.002
14	206186	62.350253279723	0.001
14	206448	62.400253279723	0.002
14	206461	62.450253279723	0.001
14	206710	62.500253279723	0.002
14	206723	62.550253279723	0.001
14	206972	62.600253279723	0.002
14	206985	62.650253279723	0.001
14	207247	62.700253279723	0.002
14	207260	62.750253279723	0.001
14	207509	62.800253279723	0.002
14	207522	62.850253279723	0.001
14	207758	62.900253279723	0.002
14	207771	62.950253279723	0.001
14	208020	63.000253279723	0.002
14	208033	63.050253279723	0.001
14	208295	63.100253279723	0.002
14	208308	63.150253279723	0.001
14	208570	63.200253279723	0.002
14	208583	63.250253279723	0.001
14	208832	63.300253279723	0.002
14	208845	63.350253279723	0.001
14	209094	63.400253279723	0.002
14	209107	63.450253279723	0.001
14	209356	63.500253279723	0.002
14	209369	63.550253279723	0.001
14	209618	63.600253279723	0.002
14	209631	63.650253279723	0.001
14	209880	63.700253279723	0.002
14	209893	63.750253279723	0.001
14	210142	63.800253279723	0.002
14	210155	63.850253279723	0.001
14	210417	63.900253279723	0.002
14	210430	63.950253279723	0.001
14	210692	64.000253279723	0.002
14	210705	64.050253279723	0.001
14	210954	64.100253279723	0.002
14	210967	64.150253279723	0.001
14	211216	64.200253279723	0.002
14	211229	64.250253279723	0.001
14	211478	64.300253279723	0.002
14	211491	64.350253279723	0.001
14	211740	64.400253279723	0.002
14	211753	64.450253279723	0.001
14	212015	64.500253279723	0.002
14	212028	64.550253279723	0.001
14	212276	64.600253279723	0.002
14	212286	64.650253279723	0.001
14	212447	64.700253279723	0.002
14	212457	64.750253279723	0.001
14	212618	64.800253279723	0.002
14	212628	64.850253279723	0.001
14	212789	64.900253279723	0.002
14	212799	64.950253279723	0.001
14	212950	65.000253279723	0.002
14	212960	65.050253279723	0.001
14	213121	65.100253279723	0.002
14	213131	65.150253279723	0.001
14	213292	65.200253279723	0.002
14	213302	65.250253279723	0.001
14	213453	65.300253279723	0.002
14	213463	65.350253279723	0.001
14	213614	65.400253279723	0.002
14	213624	65.450253279723	0.001
14	213775	65.500253279723	0.002
14	213785	65.550253279723	0.001
14	213936	65.600253279723	0.002
14	213946	65.650253279723	0.001
14	214097	65.700253279723	0.002
14	214107	65.750253279723	0.001
14	214258	65.800253279723	0.002
14	214268	65.850253279723	0.001
14	214419	65.900253279723	0.002
14	214429	65.950253279723	0.001
14	214590	66.000253279723	0.002
14	214600	66.050253279723	0.001
14	214761	66.100253279723	0.002
14	214771	66.150253279723	0.001
14	214922	66.200253279723	0.002
14	214932	66.250253279723	0.001
14	215093	66.300253279723	0.002
14	215103	66.350253279723	0.001
14	215264	66.400253279723	0.002
14	215274	66.450253279723	0.001
14	215425	66.500253279723	0.002
14	215435	66.550253279723	0.001
14	215596	66.600253279723	0.002
14	215606	66.650253279723	0.001
14	215757	66.700253279723	0.002
14	215767	66.750253279723	0.001
14	215928	66.800253279723	0.002
14	215938	66.850253279723	0.001
14	216089	66.900253279723	0.002
14	216099	66.950253279723	0.001
14	216260	67.000253279723	0.002
14	216270	67.050253279723	0.001
14	216421	67.100253279723	0.002
14	216431	67.150253279723	0.001
14	216582	67.200253279723	0.002
14	216592	67.250253279723	0.001
14	216753	67.300253279723	0.002
14	216763	67.350253279723	0.001
14	216924	67.400253279723	0.002
14	216934	67.450253279723	0.001
14	217085	67.500253279723	0.002
14	217095	67.550253279723	0.001
14	217255	67.600253279723	0.002
14	217262	67.650253279723	0.001
14	217346	67.700253279723	0.002
14	217353	67.750253279723	0.001
14	217437	67.800253279723	0.002
14	217444	67.850253279723	0.001
14	217521	67.900253279723	0.002
14	217528	67.950253279723	0.001
14	217612	68.000253279723	0.002
14	217619	68.050253279723	0.001
14	217703	68.100253279723	0.002
14	217710	68.150253279723	0.001
14	217794	68.200253279723	0.002
14	217801	68.250253279723	0.001
14	217885	68.300253279723	0.002
14	217892	68.350253279723	0.001
14	217976	68.400253279723	0.002
14	217983	68.450253279723	0.001
14	218067	68.500253279723	0.002
14	218074	68.550253279723	0.001
14	218151	68.600253279723	0.002
14	218158	68.650253279723	0.001
14	218242	68.700253279723	0.002
14	218249	68.750253279723	0.001
14	218333	68.800253279723	0.002
14	218340	68.850253279723	0.001
14	218424	68.900253279723	0.002
14	218431	68.950253279723	0.001
14	218508	69.000253279723	0.002
14	218515	69.050253279723	0.001
14	218599	69.100253279723	0.002
14	218606	69.150253279723	0.001
14	218690	69.200253279723	0.002
14	218697	69.250253279723	0.001
14	218781	69.300253279723	0.002
14	218788	69.350253279723	0.001
14	218872	69.400253279723	0.002
14	218879	69.450253279723	0.001
14	218963	69.500253279723	0.002
14	218970	69.550253279723	0.001
14	219047	69.600253279723	0.002
14	219054	69.650253279723	0.001
14	219138	69.700253279723	0.002
14	219145	69.750253279723	0.001
14	219229	69.800253279723	0.002
14	219236	69.850253279723	0.001
14	219320	69.900253279723	0.002
14	219327	69.950253279723	0.001
14	219411	70.000253279723	0.002
14	219418	70.050253279723	0.001
14	219502	70.100253279723	0.002
14	219509	70.150253279723	0.001
14	219593	70.200253279723	0.002
14	219600	70.250253279723	0.001
14	219677	70.300253279723	0.002
14	219684	70.350253279723	0.001
14	219768	70.400253279723	0.002
14	219775	70.450253279723	0.001
14	219859	70.500253279723	0.002
14	219866	70.550253279723	0.001
14	219950	70.600253279723	0.002
14	219957	70.650253279723	0.001
14	220033	70.700253279723	0.002
14	220037	70.750253279723	0.001
14	220068	70.800253279723	0.002
14	220072	70.850253279723	0.001
14	220103	70.900253279723	0.002
14	220107	70.950253279723	0.001
14	220138	71.000253279723	0.002
14	220142	71.050253279723	0.001
14	220173	71.100253279723	0.002
14	220177	71.150253279723	0.001
14	220208	71.200253279723	0.002
14	220212	71.250253279723	0.001
14	220243	71.300253279723	0.002
14	220247	71.350253279723	0.001
14	220278	71.400253279723	0.002
14	220282	71.450253279723	0.001
14	220313	71.500253279723	0.002
14	220317	71.550253279723	0.001
14	220348	71.600253279723	0.002
14	220352	71.650253279723	0.001
14	220383	71.700253279723	0.002
14	220387	71.750253279723	0.001
14	220418	71.800253279723	0.002
14	220422	71.850253279723	0.001
14	220453	71.900253279723	0.002
14	220457	71.950253279723	0.001
14	220488	72.000253279723	0.002
14	220492	72.050253279723	0.001
14	220523	72.100253279723	0.002
14	220527	72.150253279723	0.001
14	220558	72.200253279723	0.002
14	220562	72.250253279723	0.001
14	220593	72.300253279723	0.002
14	220597	72.350253279723	0.001
14	220628	72.400253279723	0.002
14	220632	72.450253279723	0.001
14	220663	72.500253279723	0.002
14	220667	72.550253279723	0.001
14	220698	72.600253279723	0.002
14	220702	72.650253279723	0.001
14	220733	72.700253279723	0.002
14	220737	72.750253279723	0.001
14	220768	72.800253279723	0.002
14	220772	72.850253279723	0.001
14	220803	72.900253279723	0.002
14	220807	72.950253279723	0.001
14	220838	73.000253279723	0.002
14	220842	73.050253279723	0.001
14	220873	73.100253279723	0.002
14	220877	73.150253279723	0.001
14	220908	73.200253279723	0.002
14	220912	73.250253279723	0.001
14	220943	73.300253279723	0.002
14	220947	73.350253279723	0.001
14	220978	73.400253279723	0.002
14	220982	73.450253279723	0.001
14	221013	73.500253279723	0.002
14	221017	73.550253279723	0.001
14	221047	73.600253279723	0.002
14	221048	73.650253279723	0.001
14	221049	73.700253279723	0.002
14	221050	73.750253279723	0.001
14	221051	73.800253279723	0.002
14	221052	73.850253279723	0.001
14	221053	73.900253279723	0.002
14	221054	73.950253279723	0.001
14	221055	74.000253279723	0.002
14	221056	74.050253279723	0.001
14	221057	74.100253279723	0.002
14	221058	74.150253279723	0.001
14	221059	74.200253279723	0.002
14	221060	74.250253279723	0.001
14	221061	74.300253279723	0.002
14	221062	74.350253279723	0.001
14	221063	74.400253279723	0.002
14	221064	74.450253279723	0.001
14	221065	74.500253279723	0.002
14	221066	74.550253279723	0.001
14	221067	74.600253279723	0.002
14	221068	74.650253279723	0.001
14	221069	74.700253279723	0.002
14	221070	74.750253279723	0.001
14	221071	74.800253279723	0.002
14	221072	74.850253279723	0.001
14	221073	74.900253279723	0.002
14	221074	74.950253279723	0.001
14	221075	75.000253279723	0.002
14	221076	75.050253279723	0.001
14	221077	75.100253279723	0.002
14	221078	75.150253279723	0.001
14	221079	75.200253279723	0.002
14	221080	75.250253279723	0.001
14	221081	75.300253279723	0.002
14	221082	75.350253279723	0.001
14	221083	75.400253279723	0.002
14	221084	75.450253279723	0.001
14	221085	75.500253279723	0.002
14	221086	75.550253279723	0.001
14	221087	75.600253279723	0.002
14	221088	75.650253279723	0.001
14	221089	75.700253279723	0.002
14	221090	75.750253279723	0.001
14	221091	75.800253279723	0.002
14	221092	75.850253279723	0.001
14	221093	75.900253279723	0.002
14	221094	75.950253279723	0.001
