version 2
run VoIP-20ms_200B-3-20160923-14:08:42-14559
attr configname VoIP-20ms_200B
attr datetime 20160923-14:08:42
attr experiment VoIP-20ms_200B
attr inifile omnetpp.ini
attr iterationvars ""
attr iterationvars2 $repetition=3
attr measurement ""
attr network SymScenerio
attr processid 14559
attr repetition 3
attr replication #3
attr resultdir results
attr runnumber 3
attr seedset 3
param **.coreDebug false
param **.debug false
param *.**.nic.mac1609_4.bitrate 18Mbps
param *.**.nic.mac1609_4.txPower 20mW
param *.**.nic.mac1609_4.useServiceChannel true
param *.**.nic.phy80211p.analogueModels "xmldoc(\"config.xml\")"
param *.**.nic.phy80211p.decider "xmldoc(\"config.xml\")"
param *.**.nic.phy80211p.sensitivity -89dBm
param *.**.nic.phy80211p.thermalNoise -110dBm
param *.**.nic.phy80211p.usePropagationDelay true
param *.**.nic.phy80211p.useThermalNoise true
param *.annotations.draw false
param *.connectionManager.alpha 2.0
param *.connectionManager.carrierFrequency "5.890e9 Hz"
param *.connectionManager.pMax 20mW
param *.connectionManager.sat -89dBm
param *.connectionManager.sendDirect true
param *.manager.autoShutdown true
param *.manager.host "\"localhost\""
param *.manager.launchConfig "xmldoc(\"map.launchd.xml\")"
param *.manager.margin 25
param *.manager.moduleDisplayString "\"\""
param *.manager.moduleName "\"node\""
param *.manager.moduleType "\"symulacja.veins.nodes.Car\""
param *.manager.port 9999
param *.manager.updateInterval 0.1s
param *.node[*].appl.beaconInterval 1s
param *.node[*].appl.beaconPriority 3
param *.node[*].appl.dataOnSch false
param *.node[*].appl.dataPriority 2
param *.node[*].appl.debug false
param *.node[*].appl.maxOffset 0.005s
param *.node[*].appl.sendBeacons false
param *.node[*].appl.sendData true
param *.node[*].appl.sendVoIP true
param *.node[*].appl.voipInterval 0.020s
param *.node[*].appl.voipLengthBits 1600bit
param *.node[*].appl.voipOnSch true
param *.node[*].appl.voipPriority 3
param *.node[*].applType "\"Sym11p\""
param *.node[*].veinsmobility.x 0
param *.node[*].veinsmobility.y 0
param *.node[*].veinsmobility.z 1.895
param *.node[*].veinsmobilityType "\"symulacja.veins.modules.mobility.traci.TraCIMobility\""
param *.playgroundSizeX 9000m
param *.playgroundSizeY 9000m
param *.playgroundSizeZ 50m
param *.rsu[*].appl.beaconInterval 1s
param *.rsu[*].appl.beaconPriority 3
param *.rsu[*].appl.dataOnSch false
param *.rsu[*].appl.dataPriority 2
param *.rsu[*].appl.debug false
param *.rsu[*].appl.headerLength "256 bit"
param *.rsu[*].appl.maxOffset 0.005s
param *.rsu[*].appl.sendBeacons false
param *.rsu[*].appl.sendData false
param *.rsu[*].appl.sendVoIP false
param *.rsu[*].applType "\"SymRSU11p\""
param *.rsu[0].mobility.x 2160
param *.rsu[0].mobility.y 3100
param *.rsu[0].mobility.z 3
param *.world.use2D false
param *.world.useTorus false

vector 14  SymScenerio.rsu[0].nic.mac1609_4  "Interwały kanałów"  ETV
vector 23  SymScenerio.node[0].veinsmobility  posx  ETV
vector 24  SymScenerio.node[0].veinsmobility  posy  ETV
vector 22  SymScenerio.node[0].nic.mac1609_4  "Interwały kanałów"  ETV
vector 25  SymScenerio.node[0].veinsmobility  speed  ETV
vector 26  SymScenerio.node[0].veinsmobility  acceleration  ETV
vector 27  SymScenerio.node[0].veinsmobility  co2emission  ETV
vector 15  SymScenerio.node[0].appl  "TX Packets"  ETV
vector 16  SymScenerio.node[0].appl  "TX Total"  ETV
vector 17  SymScenerio.node[0].appl  Pakietyzacja  ETV
vector 5  SymScenerio.rsu[0].appl  nodeALL:vector  ETV
attr source  nodeALL
attr title  "Opoznienia ALL, vector"
vector 9  SymScenerio.rsu[0].appl  "RX Packet"  ETV
vector 0  SymScenerio.rsu[0].appl  node0:vector  ETV
attr source  node0
attr title  "Opoznienia node0, vector"
vector 36  SymScenerio.node[1].veinsmobility  posx  ETV
vector 37  SymScenerio.node[1].veinsmobility  posy  ETV
vector 35  SymScenerio.node[1].nic.mac1609_4  "Interwały kanałów"  ETV
vector 38  SymScenerio.node[1].veinsmobility  speed  ETV
vector 39  SymScenerio.node[1].veinsmobility  acceleration  ETV
vector 40  SymScenerio.node[1].veinsmobility  co2emission  ETV
vector 28  SymScenerio.node[1].appl  "TX Packets"  ETV
vector 29  SymScenerio.node[1].appl  "TX Total"  ETV
vector 30  SymScenerio.node[1].appl  Pakietyzacja  ETV
vector 1  SymScenerio.rsu[0].appl  node1:vector  ETV
attr source  node1
attr title  "Opoznienia node1, vector"
vector 49  SymScenerio.node[2].veinsmobility  posx  ETV
vector 50  SymScenerio.node[2].veinsmobility  posy  ETV
vector 48  SymScenerio.node[2].nic.mac1609_4  "Interwały kanałów"  ETV
vector 51  SymScenerio.node[2].veinsmobility  speed  ETV
vector 52  SymScenerio.node[2].veinsmobility  acceleration  ETV
vector 53  SymScenerio.node[2].veinsmobility  co2emission  ETV
vector 41  SymScenerio.node[2].appl  "TX Packets"  ETV
vector 42  SymScenerio.node[2].appl  "TX Total"  ETV
vector 43  SymScenerio.node[2].appl  Pakietyzacja  ETV
vector 2  SymScenerio.rsu[0].appl  node2:vector  ETV
attr source  node2
attr title  "Opoznienia node2, vector"
vector 62  SymScenerio.node[3].veinsmobility  posx  ETV
vector 63  SymScenerio.node[3].veinsmobility  posy  ETV
vector 61  SymScenerio.node[3].nic.mac1609_4  "Interwały kanałów"  ETV
vector 64  SymScenerio.node[3].veinsmobility  speed  ETV
vector 65  SymScenerio.node[3].veinsmobility  acceleration  ETV
vector 66  SymScenerio.node[3].veinsmobility  co2emission  ETV
vector 54  SymScenerio.node[3].appl  "TX Packets"  ETV
vector 55  SymScenerio.node[3].appl  "TX Total"  ETV
vector 56  SymScenerio.node[3].appl  Pakietyzacja  ETV
vector 3  SymScenerio.rsu[0].appl  node3:vector  ETV
attr source  node3
attr title  "Opoznienia node3, vector"
vector 75  SymScenerio.node[4].veinsmobility  posx  ETV
vector 76  SymScenerio.node[4].veinsmobility  posy  ETV
vector 74  SymScenerio.node[4].nic.mac1609_4  "Interwały kanałów"  ETV
vector 77  SymScenerio.node[4].veinsmobility  speed  ETV
vector 78  SymScenerio.node[4].veinsmobility  acceleration  ETV
vector 79  SymScenerio.node[4].veinsmobility  co2emission  ETV
vector 67  SymScenerio.node[4].appl  "TX Packets"  ETV
vector 68  SymScenerio.node[4].appl  "TX Total"  ETV
vector 69  SymScenerio.node[4].appl  Pakietyzacja  ETV
vector 4  SymScenerio.rsu[0].appl  node4:vector  ETV
attr source  node4
attr title  "Opoznienia node4, vector"
17	47	0.966473478922	1.002
17	62	0.986473478922	1.002
17	80	1.006473478922	1.002
17	82	1.026473478922	1.002
17	84	1.046473478922	1.002
17	127	1.066473478922	1.002
17	142	1.086473478922	1.002
17	160	1.106473478922	1.002
17	162	1.126473478922	1.002
17	164	1.146473478922	1.002
17	207	1.166473478922	1.002
17	222	1.186473478922	1.002
17	240	1.206473478922	1.002
17	242	1.226473478922	1.002
17	244	1.246473478922	1.002
17	287	1.266473478922	1.002
17	302	1.286473478922	1.002
17	320	1.306473478922	1.002
17	322	1.326473478922	1.002
17	324	1.346473478922	1.002
17	367	1.366473478922	1.002
17	382	1.386473478922	1.002
17	400	1.406473478922	1.002
17	402	1.426473478922	1.002
17	404	1.446473478922	1.002
17	447	1.466473478922	1.002
17	462	1.486473478922	1.002
17	480	1.506473478922	1.002
17	482	1.526473478922	1.002
17	484	1.546473478922	1.002
17	527	1.566473478922	1.002
17	542	1.586473478922	1.002
17	560	1.606473478922	1.002
17	562	1.626473478922	1.002
17	564	1.646473478922	1.002
17	607	1.666473478922	1.002
17	622	1.686473478922	1.002
17	640	1.706473478922	1.002
17	642	1.726473478922	1.002
17	644	1.746473478922	1.002
17	687	1.766473478922	1.002
17	702	1.786473478922	1.002
17	720	1.806473478922	1.002
17	722	1.826473478922	1.002
17	724	1.846473478922	1.002
17	767	1.866473478922	1.002
17	782	1.886473478922	1.002
17	800	1.906473478922	1.002
17	802	1.926473478922	1.002
17	804	1.946473478922	1.002
17	847	1.966473478922	1.002
17	862	1.986473478922	1.002
17	880	2.006473478922	1.002
17	882	2.026473478922	1.002
17	884	2.046473478922	1.002
17	927	2.066473478922	1.002
17	942	2.086473478922	1.002
17	960	2.106473478922	1.002
17	962	2.126473478922	1.002
17	964	2.146473478922	1.002
17	1007	2.166473478922	1.002
17	1022	2.186473478922	1.002
17	1040	2.206473478922	1.002
17	1042	2.226473478922	1.002
17	1044	2.246473478922	1.002
17	1087	2.266473478922	1.002
17	1102	2.286473478922	1.002
17	1120	2.306473478922	1.002
17	1122	2.326473478922	1.002
17	1124	2.346473478922	1.002
17	1167	2.366473478922	1.002
17	1182	2.386473478922	1.002
17	1200	2.406473478922	1.002
17	1202	2.426473478922	1.002
17	1204	2.446473478922	1.002
17	1247	2.466473478922	1.002
17	1262	2.486473478922	1.002
17	1280	2.506473478922	1.002
17	1282	2.526473478922	1.002
17	1284	2.546473478922	1.002
17	1327	2.566473478922	1.002
17	1342	2.586473478922	1.002
17	1360	2.606473478922	1.002
17	1362	2.626473478922	1.002
17	1364	2.646473478922	1.002
17	1407	2.666473478922	1.002
17	1422	2.686473478922	1.002
17	1440	2.706473478922	1.002
17	1442	2.726473478922	1.002
17	1444	2.746473478922	1.002
17	1487	2.766473478922	1.002
17	1502	2.786473478922	1.002
17	1520	2.806473478922	1.002
17	1522	2.826473478922	1.002
17	1524	2.846473478922	1.002
17	1567	2.866473478922	1.002
17	1582	2.886473478922	1.002
17	1600	2.906473478922	1.002
17	1602	2.926473478922	1.002
17	1604	2.946473478922	1.002
17	1647	2.966473478922	1.002
17	1662	2.986473478922	1.002
17	1680	3.006473478922	1.002
17	1682	3.026473478922	1.002
17	1684	3.046473478922	1.002
17	1727	3.066473478922	1.002
17	1742	3.086473478922	1.002
17	1760	3.106473478922	1.002
17	1762	3.126473478922	1.002
17	1764	3.146473478922	1.002
17	1826	3.166473478922	1.002
17	1847	3.186473478922	1.002
17	1872	3.206473478922	1.002
17	1874	3.226473478922	1.002
17	1876	3.246473478922	1.002
17	1938	3.266473478922	1.002
17	1959	3.286473478922	1.002
17	1984	3.306473478922	1.002
17	1986	3.326473478922	1.002
17	1990	3.346473478922	1.002
17	2092	3.366473478922	1.002
17	2134	3.386473478922	1.002
17	2180	3.406473478922	1.002
17	2184	3.426473478922	1.002
17	2188	3.446473478922	1.002
17	2302	3.466473478922	1.002
17	2344	3.486473478922	1.002
17	2390	3.506473478922	1.002
17	2394	3.526473478922	1.002
17	2398	3.546473478922	1.002
17	2512	3.566473478922	1.002
17	2554	3.586473478922	1.002
17	2600	3.606473478922	1.002
17	2604	3.626473478922	1.002
17	2608	3.646473478922	1.002
17	2729	3.666473478922	1.002
17	2771	3.686473478922	1.002
17	2817	3.706473478922	1.002
17	2821	3.726473478922	1.002
17	2825	3.746473478922	1.002
17	2946	3.766473478922	1.002
17	2988	3.786473478922	1.002
17	3034	3.806473478922	1.002
17	3038	3.826473478922	1.002
17	3042	3.846473478922	1.002
17	3156	3.866473478922	1.002
17	3198	3.886473478922	1.002
17	3244	3.906473478922	1.002
17	3248	3.926473478922	1.002
17	3252	3.946473478922	1.002
17	3366	3.966473478922	1.002
17	3408	3.986473478922	1.002
17	3454	4.006473478922	1.002
17	3458	4.026473478922	1.002
17	3462	4.046473478922	1.002
17	3576	4.066473478922	1.002
17	3618	4.086473478922	1.002
17	3664	4.106473478922	1.002
17	3668	4.126473478922	1.002
17	3672	4.146473478922	1.002
17	3793	4.166473478922	1.002
17	3835	4.186473478922	1.002
17	3881	4.206473478922	1.002
17	3885	4.226473478922	1.002
17	3889	4.246473478922	1.002
17	4003	4.266473478922	1.002
17	4045	4.286473478922	1.002
17	4091	4.306473478922	1.002
17	4095	4.326473478922	1.002
17	4099	4.346473478922	1.002
17	4220	4.366473478922	1.002
17	4262	4.386473478922	1.002
17	4308	4.406473478922	1.002
17	4312	4.426473478922	1.002
17	4316	4.446473478922	1.002
17	4437	4.466473478922	1.002
17	4479	4.486473478922	1.002
17	4525	4.506473478922	1.002
17	4529	4.526473478922	1.002
17	4533	4.546473478922	1.002
17	4654	4.566473478922	1.002
17	4696	4.586473478922	1.002
17	4742	4.606473478922	1.002
17	4746	4.626473478922	1.002
17	4750	4.646473478922	1.002
17	4871	4.666473478922	1.002
17	4913	4.686473478922	1.002
17	4959	4.706473478922	1.002
17	4963	4.726473478922	1.002
17	4967	4.746473478922	1.002
17	5088	4.766473478922	1.002
17	5130	4.786473478922	1.002
17	5176	4.806473478922	1.002
17	5180	4.826473478922	1.002
17	5184	4.846473478922	1.002
17	5298	4.866473478922	1.002
17	5340	4.886473478922	1.002
17	5386	4.906473478922	1.002
17	5390	4.926473478922	1.002
17	5394	4.946473478922	1.002
17	5508	4.966473478922	1.002
17	5550	4.986473478922	1.002
17	5596	5.006473478922	1.002
17	5600	5.026473478922	1.002
17	5604	5.046473478922	1.002
17	5725	5.066473478922	1.002
17	5767	5.086473478922	1.002
17	5813	5.106473478922	1.002
17	5817	5.126473478922	1.002
17	5821	5.146473478922	1.002
17	5935	5.166473478922	1.002
17	5977	5.186473478922	1.002
17	6023	5.206473478922	1.002
17	6027	5.226473478922	1.002
17	6031	5.246473478922	1.002
17	6145	5.266473478922	1.002
17	6187	5.286473478922	1.002
17	6233	5.306473478922	1.002
17	6237	5.326473478922	1.002
17	6241	5.346473478922	1.002
17	6362	5.366473478922	1.002
17	6404	5.386473478922	1.002
17	6450	5.406473478922	1.002
17	6454	5.426473478922	1.002
17	6458	5.446473478922	1.002
17	6579	5.466473478922	1.002
17	6621	5.486473478922	1.002
17	6667	5.506473478922	1.002
17	6671	5.526473478922	1.002
17	6675	5.546473478922	1.002
17	6796	5.566473478922	1.002
17	6838	5.586473478922	1.002
17	6884	5.606473478922	1.002
17	6888	5.626473478922	1.002
17	6892	5.646473478922	1.002
17	7006	5.666473478922	1.002
17	7048	5.686473478922	1.002
17	7094	5.706473478922	1.002
17	7098	5.726473478922	1.002
17	7102	5.746473478922	1.002
17	7223	5.766473478922	1.002
17	7265	5.786473478922	1.002
17	7311	5.806473478922	1.002
17	7315	5.826473478922	1.002
17	7319	5.846473478922	1.002
17	7440	5.866473478922	1.002
17	7482	5.886473478922	1.002
17	7528	5.906473478922	1.002
17	7532	5.926473478922	1.002
17	7536	5.946473478922	1.002
17	7650	5.966473478922	1.002
17	7692	5.986473478922	1.002
17	7738	6.006473478922	1.002
17	7742	6.026473478922	1.002
17	7746	6.046473478922	1.002
17	7867	6.066473478922	1.002
17	7909	6.086473478922	1.002
17	7955	6.106473478922	1.002
17	7959	6.126473478922	1.002
17	7963	6.146473478922	1.002
17	8111	6.166473478922	1.002
17	8165	6.186473478922	1.002
17	8224	6.206473478922	1.002
17	8228	6.226473478922	1.002
17	8232	6.246473478922	1.002
17	8380	6.266473478922	1.002
17	8434	6.286473478922	1.002
17	8493	6.306473478922	1.002
17	8497	6.326473478922	1.002
17	8501	6.346473478922	1.002
17	8659	6.366473478922	1.002
17	8713	6.386473478922	1.002
17	8772	6.406473478922	1.002
17	8776	6.426473478922	1.002
17	8782	6.446473478922	1.002
17	8975	6.466473478922	1.002
17	9056	6.486473478922	1.002
17	9142	6.506473478922	1.002
17	9148	6.526473478922	1.002
17	9154	6.546473478922	1.002
17	9379	6.566473478922	1.002
17	9460	6.586473478922	1.002
17	9546	6.606473478922	1.002
17	9552	6.626473478922	1.002
17	9558	6.646473478922	1.002
17	9783	6.666473478922	1.002
17	9864	6.686473478922	1.002
17	9950	6.706473478922	1.002
17	9956	6.726473478922	1.002
17	9962	6.746473478922	1.002
17	10180	6.766473478922	1.002
17	10261	6.786473478922	1.002
17	10347	6.806473478922	1.002
17	10353	6.826473478922	1.002
17	10359	6.846473478922	1.002
17	10577	6.866473478922	1.002
17	10658	6.886473478922	1.002
17	10744	6.906473478922	1.002
17	10750	6.926473478922	1.002
17	10756	6.946473478922	1.002
17	10971	6.966473478922	1.002
17	11052	6.986473478922	1.002
17	11138	7.006473478922	1.002
17	11144	7.026473478922	1.002
17	11150	7.046473478922	1.002
17	11365	7.066473478922	1.002
17	11446	7.086473478922	1.002
17	11532	7.106473478922	1.002
17	11538	7.126473478922	1.002
17	11544	7.146473478922	1.002
17	11769	7.166473478922	1.002
17	11850	7.186473478922	1.002
17	11936	7.206473478922	1.002
17	11942	7.226473478922	1.002
17	11948	7.246473478922	1.002
17	12163	7.266473478922	1.002
17	12244	7.286473478922	1.002
17	12330	7.306473478922	1.002
17	12336	7.326473478922	1.002
17	12342	7.346473478922	1.002
17	12567	7.366473478922	1.002
17	12648	7.386473478922	1.002
17	12734	7.406473478922	1.002
17	12740	7.426473478922	1.002
17	12746	7.446473478922	1.002
17	12954	7.466473478922	1.002
17	13035	7.486473478922	1.002
17	13121	7.506473478922	1.002
17	13127	7.526473478922	1.002
17	13133	7.546473478922	1.002
17	13338	7.566473478922	1.002
17	13419	7.586473478922	1.002
17	13505	7.606473478922	1.002
17	13511	7.626473478922	1.002
17	13517	7.646473478922	1.002
17	13742	7.666473478922	1.002
17	13823	7.686473478922	1.002
17	13909	7.706473478922	1.002
17	13915	7.726473478922	1.002
17	13921	7.746473478922	1.002
17	14136	7.766473478922	1.002
17	14217	7.786473478922	1.002
17	14303	7.806473478922	1.002
17	14309	7.826473478922	1.002
17	14315	7.846473478922	1.002
17	14530	7.866473478922	1.002
17	14611	7.886473478922	1.002
17	14697	7.906473478922	1.002
17	14703	7.926473478922	1.002
17	14709	7.946473478922	1.002
17	14934	7.966473478922	1.002
17	15015	7.986473478922	1.002
17	15101	8.006473478922	1.002
17	15107	8.026473478922	1.002
17	15113	8.046473478922	1.002
17	15328	8.066473478922	1.002
17	15409	8.086473478922	1.002
17	15495	8.106473478922	1.002
17	15501	8.126473478922	1.002
17	15507	8.146473478922	1.002
17	15732	8.166473478922	1.002
17	15813	8.186473478922	1.002
17	15899	8.206473478922	1.002
17	15905	8.226473478922	1.002
17	15911	8.246473478922	1.002
17	16146	8.266473478922	1.002
17	16227	8.286473478922	1.002
17	16313	8.306473478922	1.002
17	16319	8.326473478922	1.002
17	16325	8.346473478922	1.002
17	16550	8.366473478922	1.002
17	16631	8.386473478922	1.002
17	16717	8.406473478922	1.002
17	16723	8.426473478922	1.002
17	16729	8.446473478922	1.002
17	16937	8.466473478922	1.002
17	17018	8.486473478922	1.002
17	17104	8.506473478922	1.002
17	17110	8.526473478922	1.002
17	17116	8.546473478922	1.002
17	17331	8.566473478922	1.002
17	17412	8.586473478922	1.002
17	17498	8.606473478922	1.002
17	17504	8.626473478922	1.002
17	17510	8.646473478922	1.002
17	17725	8.666473478922	1.002
17	17806	8.686473478922	1.002
17	17892	8.706473478922	1.002
17	17898	8.726473478922	1.002
17	17904	8.746473478922	1.002
17	18129	8.766473478922	1.002
17	18210	8.786473478922	1.002
17	18296	8.806473478922	1.002
17	18302	8.826473478922	1.002
17	18308	8.846473478922	1.002
17	18533	8.866473478922	1.002
17	18614	8.886473478922	1.002
17	18700	8.906473478922	1.002
17	18706	8.926473478922	1.002
17	18712	8.946473478922	1.002
17	18947	8.966473478922	1.002
17	19028	8.986473478922	1.002
17	19114	9.006473478922	1.002
17	19120	9.026473478922	1.002
17	19126	9.046473478922	1.002
17	19351	9.066473478922	1.002
17	19432	9.086473478922	1.002
17	19518	9.106473478922	1.002
17	19524	9.126473478922	1.002
17	19530	9.146473478922	1.002
17	19807	9.166473478922	1.002
17	19906	9.186473478922	1.002
17	20011	9.206473478922	1.002
17	20017	9.226473478922	1.002
17	20023	9.246473478922	1.002
17	20291	9.266473478922	1.002
17	20390	9.286473478922	1.002
17	20495	9.306473478922	1.002
17	20501	9.326473478922	1.002
17	20507	9.346473478922	1.002
17	20775	9.366473478922	1.002
17	20874	9.386473478922	1.002
17	20979	9.406473478922	1.002
17	20985	9.426473478922	1.002
17	20991	9.446473478922	1.002
17	21268	9.466473478922	1.002
17	21367	9.486473478922	1.002
17	21472	9.506473478922	1.002
17	21478	9.526473478922	1.002
17	21484	9.546473478922	1.002
17	21774	9.566473478922	1.002
17	21873	9.586473478922	1.002
17	21978	9.606473478922	1.002
17	21984	9.626473478922	1.002
17	21990	9.646473478922	1.002
17	22267	9.666473478922	1.002
17	22366	9.686473478922	1.002
17	22471	9.706473478922	1.002
17	22477	9.726473478922	1.002
17	22483	9.746473478922	1.002
17	22747	9.766473478922	1.002
17	22846	9.786473478922	1.002
17	22951	9.806473478922	1.002
17	22957	9.826473478922	1.002
17	22963	9.846473478922	1.002
17	23240	9.866473478922	1.002
17	23339	9.886473478922	1.002
17	23444	9.906473478922	1.002
17	23450	9.926473478922	1.002
17	23456	9.946473478922	1.002
17	23720	9.966473478922	1.002
17	23819	9.986473478922	1.002
17	23924	10.006473478922	1.002
17	23930	10.026473478922	1.002
17	23938	10.046473478922	1.002
17	24266	10.066473478922	1.002
17	24398	10.086473478922	1.002
17	24536	10.106473478922	1.002
17	24544	10.126473478922	1.002
17	24552	10.146473478922	1.002
17	24898	10.166473478922	1.002
17	25030	10.186473478922	1.002
17	25168	10.206473478922	1.002
17	25176	10.226473478922	1.002
17	25184	10.246473478922	1.002
17	25530	10.266473478922	1.002
17	25662	10.286473478922	1.002
17	25800	10.306473478922	1.002
17	25808	10.326473478922	1.002
17	25816	10.346473478922	1.002
17	26175	10.366473478922	1.002
17	26307	10.386473478922	1.002
17	26445	10.406473478922	1.002
17	26453	10.426473478922	1.002
17	26461	10.446473478922	1.002
17	26794	10.466473478922	1.002
17	26926	10.486473478922	1.002
17	27064	10.506473478922	1.002
17	27072	10.526473478922	1.002
17	27080	10.546473478922	1.002
17	27430	10.566473478922	1.002
17	27562	10.586473478922	1.002
17	27700	10.606473478922	1.002
17	27708	10.626473478922	1.002
17	27716	10.646473478922	1.002
17	28066	10.666473478922	1.002
17	28198	10.686473478922	1.002
17	28336	10.706473478922	1.002
17	28344	10.726473478922	1.002
17	28352	10.746473478922	1.002
17	28698	10.766473478922	1.002
17	28830	10.786473478922	1.002
17	28968	10.806473478922	1.002
17	28976	10.826473478922	1.002
17	28984	10.846473478922	1.002
17	29321	10.866473478922	1.002
17	29453	10.886473478922	1.002
17	29591	10.906473478922	1.002
17	29599	10.926473478922	1.002
17	29607	10.946473478922	1.002
17	29966	10.966473478922	1.002
17	30098	10.986473478922	1.002
17	30236	11.006473478922	1.002
17	30244	11.026473478922	1.002
17	30252	11.046473478922	1.002
17	30611	11.066473478922	1.002
17	30743	11.086473478922	1.002
17	30881	11.106473478922	1.002
17	30889	11.126473478922	1.002
17	30897	11.146473478922	1.002
17	31247	11.166473478922	1.002
17	31379	11.186473478922	1.002
17	31517	11.206473478922	1.002
17	31525	11.226473478922	1.002
17	31533	11.246473478922	1.002
17	31861	11.266473478922	1.002
17	31993	11.286473478922	1.002
17	32131	11.306473478922	1.002
17	32139	11.326473478922	1.002
17	32147	11.346473478922	1.002
17	32506	11.366473478922	1.002
17	32638	11.386473478922	1.002
17	32776	11.406473478922	1.002
17	32784	11.426473478922	1.002
17	32792	11.446473478922	1.002
17	33151	11.466473478922	1.002
17	33283	11.486473478922	1.002
17	33421	11.506473478922	1.002
17	33429	11.526473478922	1.002
17	33437	11.546473478922	1.002
17	33770	11.566473478922	1.002
17	33902	11.586473478922	1.002
17	34040	11.606473478922	1.002
17	34048	11.626473478922	1.002
17	34056	11.646473478922	1.002
17	34397	11.666473478922	1.002
17	34529	11.686473478922	1.002
17	34667	11.706473478922	1.002
17	34675	11.726473478922	1.002
17	34683	11.746473478922	1.002
17	35024	11.766473478922	1.002
17	35156	11.786473478922	1.002
17	35294	11.806473478922	1.002
17	35302	11.826473478922	1.002
17	35310	11.846473478922	1.002
17	35651	11.866473478922	1.002
17	35783	11.886473478922	1.002
17	35921	11.906473478922	1.002
17	35929	11.926473478922	1.002
17	35937	11.946473478922	1.002
17	36278	11.966473478922	1.002
17	36410	11.986473478922	1.002
17	36548	12.006473478922	1.002
17	36556	12.026473478922	1.002
17	36564	12.046473478922	1.002
17	36914	12.066473478922	1.002
17	37046	12.086473478922	1.002
17	37184	12.106473478922	1.002
17	37192	12.126473478922	1.002
17	37200	12.146473478922	1.002
17	37642	12.166473478922	1.002
17	37798	12.186473478922	1.002
17	37961	12.206473478922	1.002
17	37969	12.226473478922	1.002
17	37977	12.246473478922	1.002
17	38387	12.266473478922	1.002
17	38543	12.286473478922	1.002
17	38706	12.306473478922	1.002
17	38714	12.326473478922	1.002
17	38722	12.346473478922	1.002
17	39148	12.366473478922	1.002
17	39343	12.386473478922	1.002
17	39545	12.406473478922	1.002
17	39555	12.426473478922	1.002
17	39565	12.446473478922	1.002
17	40060	12.466473478922	1.002
17	40255	12.486473478922	1.002
17	40457	12.506473478922	1.002
17	40467	12.526473478922	1.002
17	40477	12.546473478922	1.002
17	40978	12.566473478922	1.002
17	41173	12.586473478922	1.002
17	41375	12.606473478922	1.002
17	41385	12.626473478922	1.002
17	41395	12.646473478922	1.002
17	41886	12.666473478922	1.002
17	42081	12.686473478922	1.002
17	42283	12.706473478922	1.002
17	42293	12.726473478922	1.002
17	42303	12.746473478922	1.002
17	42811	12.766473478922	1.002
17	43006	12.786473478922	1.002
17	43208	12.806473478922	1.002
17	43218	12.826473478922	1.002
17	43228	12.846473478922	1.002
17	43724	12.866473478922	1.002
17	43919	12.886473478922	1.002
17	44121	12.906473478922	1.002
17	44131	12.926473478922	1.002
17	44141	12.946473478922	1.002
17	44638	12.966473478922	1.002
17	44833	12.986473478922	1.002
17	45035	13.006473478922	1.002
17	45045	13.026473478922	1.002
17	45055	13.046473478922	1.002
17	45556	13.066473478922	1.002
17	45751	13.086473478922	1.002
17	45953	13.106473478922	1.002
17	45963	13.126473478922	1.002
17	45973	13.146473478922	1.002
17	46501	13.166473478922	1.002
17	46696	13.186473478922	1.002
17	46898	13.206473478922	1.002
17	46908	13.226473478922	1.002
17	46918	13.246473478922	1.002
17	47419	13.266473478922	1.002
17	47614	13.286473478922	1.002
17	47816	13.306473478922	1.002
17	47826	13.326473478922	1.002
17	47836	13.346473478922	1.002
17	48332	13.366473478922	1.002
17	48527	13.386473478922	1.002
17	48729	13.406473478922	1.002
17	48739	13.426473478922	1.002
17	48749	13.446473478922	1.002
17	49250	13.466473478922	1.002
17	49445	13.486473478922	1.002
17	49647	13.506473478922	1.002
17	49657	13.526473478922	1.002
17	49667	13.546473478922	1.002
17	50184	13.566473478922	1.002
17	50379	13.586473478922	1.002
17	50581	13.606473478922	1.002
17	50591	13.626473478922	1.002
17	50601	13.646473478922	1.002
17	51098	13.666473478922	1.002
17	51293	13.686473478922	1.002
17	51495	13.706473478922	1.002
17	51505	13.726473478922	1.002
17	51515	13.746473478922	1.002
17	52023	13.766473478922	1.002
17	52218	13.786473478922	1.002
17	52420	13.806473478922	1.002
17	52430	13.826473478922	1.002
17	52440	13.846473478922	1.002
17	52921	13.866473478922	1.002
17	53116	13.886473478922	1.002
17	53318	13.906473478922	1.002
17	53328	13.926473478922	1.002
17	53338	13.946473478922	1.002
17	53825	13.966473478922	1.002
17	54020	13.986473478922	1.002
17	54222	14.006473478922	1.002
17	54232	14.026473478922	1.002
17	54242	14.046473478922	1.002
17	54754	14.066473478922	1.002
17	54949	14.086473478922	1.002
17	55151	14.106473478922	1.002
17	55161	14.126473478922	1.002
17	55171	14.146473478922	1.002
17	55683	14.166473478922	1.002
17	55878	14.186473478922	1.002
17	56080	14.206473478922	1.002
17	56090	14.226473478922	1.002
17	56100	14.246473478922	1.002
17	56564	14.266473478922	1.002
17	56759	14.286473478922	1.002
17	56961	14.306473478922	1.002
17	56971	14.326473478922	1.002
17	56981	14.346473478922	1.002
17	57494	14.366473478922	1.002
17	57689	14.386473478922	1.002
17	57891	14.406473478922	1.002
17	57901	14.426473478922	1.002
17	57911	14.446473478922	1.002
17	58407	14.466473478922	1.002
17	58602	14.486473478922	1.002
17	58804	14.506473478922	1.002
17	58814	14.526473478922	1.002
17	58824	14.546473478922	1.002
17	59332	14.566473478922	1.002
17	59527	14.586473478922	1.002
17	59729	14.606473478922	1.002
17	59739	14.626473478922	1.002
17	59749	14.646473478922	1.002
17	60261	14.666473478922	1.002
17	60456	14.686473478922	1.002
17	60658	14.706473478922	1.002
17	60668	14.726473478922	1.002
17	60678	14.746473478922	1.002
17	61206	14.766473478922	1.002
17	61401	14.786473478922	1.002
17	61603	14.806473478922	1.002
17	61613	14.826473478922	1.002
17	61623	14.846473478922	1.002
17	62108	14.866473478922	1.002
17	62303	14.886473478922	1.002
17	62505	14.906473478922	1.002
17	62515	14.926473478922	1.002
17	62525	14.946473478922	1.002
17	63017	14.966473478922	1.002
17	63212	14.986473478922	1.002
17	63414	15.006473478922	1.002
17	63424	15.026473478922	1.002
17	63434	15.046473478922	1.002
17	63914	15.066473478922	1.002
17	64109	15.086473478922	1.002
17	64311	15.106473478922	1.002
17	64321	15.126473478922	1.002
17	64331	15.146473478922	1.002
17	64827	15.166473478922	1.002
17	65022	15.186473478922	1.002
17	65224	15.206473478922	1.002
17	65234	15.226473478922	1.002
17	65244	15.246473478922	1.002
17	65756	15.266473478922	1.002
17	65951	15.286473478922	1.002
17	66153	15.306473478922	1.002
17	66163	15.326473478922	1.002
17	66173	15.346473478922	1.002
17	66685	15.366473478922	1.002
17	66880	15.386473478922	1.002
17	67082	15.406473478922	1.002
17	67092	15.426473478922	1.002
17	67102	15.446473478922	1.002
17	67625	15.466473478922	1.002
17	67820	15.486473478922	1.002
17	68022	15.506473478922	1.002
17	68032	15.526473478922	1.002
17	68042	15.546473478922	1.002
17	68554	15.566473478922	1.002
17	68749	15.586473478922	1.002
17	68951	15.606473478922	1.002
17	68961	15.626473478922	1.002
17	68971	15.646473478922	1.002
17	69478	15.666473478922	1.002
17	69673	15.686473478922	1.002
17	69875	15.706473478922	1.002
17	69885	15.726473478922	1.002
17	69895	15.746473478922	1.002
17	70391	15.766473478922	1.002
17	70586	15.786473478922	1.002
17	70788	15.806473478922	1.002
17	70798	15.826473478922	1.002
17	70808	15.846473478922	1.002
17	71304	15.866473478922	1.002
17	71499	15.886473478922	1.002
17	71701	15.906473478922	1.002
17	71711	15.926473478922	1.002
17	71721	15.946473478922	1.002
17	72206	15.966473478922	1.002
17	72401	15.986473478922	1.002
17	72603	16.006473478922	1.002
17	72613	16.026473478922	1.002
17	72623	16.046473478922	1.002
17	73130	16.066473478922	1.002
17	73325	16.086473478922	1.002
17	73527	16.106473478922	1.002
17	73537	16.126473478922	1.002
17	73547	16.146473478922	1.002
17	74059	16.166473478922	1.002
17	74254	16.186473478922	1.002
17	74456	16.206473478922	1.002
17	74466	16.226473478922	1.002
17	74476	16.246473478922	1.002
17	74993	16.266473478922	1.002
17	75188	16.286473478922	1.002
17	75390	16.306473478922	1.002
17	75400	16.326473478922	1.002
17	75410	16.346473478922	1.002
17	75917	16.366473478922	1.002
17	76112	16.386473478922	1.002
17	76314	16.406473478922	1.002
17	76324	16.426473478922	1.002
17	76334	16.446473478922	1.002
17	76841	16.466473478922	1.002
17	77036	16.486473478922	1.002
17	77238	16.506473478922	1.002
17	77248	16.526473478922	1.002
17	77258	16.546473478922	1.002
17	77748	16.566473478922	1.002
17	77943	16.586473478922	1.002
17	78145	16.606473478922	1.002
17	78155	16.626473478922	1.002
17	78165	16.646473478922	1.002
17	78677	16.666473478922	1.002
17	78872	16.686473478922	1.002
17	79074	16.706473478922	1.002
17	79084	16.726473478922	1.002
17	79094	16.746473478922	1.002
17	79573	16.766473478922	1.002
17	79768	16.786473478922	1.002
17	79970	16.806473478922	1.002
17	79980	16.826473478922	1.002
17	79990	16.846473478922	1.002
17	80481	16.866473478922	1.002
17	80676	16.886473478922	1.002
17	80878	16.906473478922	1.002
17	80888	16.926473478922	1.002
17	80898	16.946473478922	1.002
17	81394	16.966473478922	1.002
17	81589	16.986473478922	1.002
17	81791	17.006473478922	1.002
17	81801	17.026473478922	1.002
17	81811	17.046473478922	1.002
17	82312	17.066473478922	1.002
17	82507	17.086473478922	1.002
17	82709	17.106473478922	1.002
17	82719	17.126473478922	1.002
17	82729	17.146473478922	1.002
17	83220	17.166473478922	1.002
17	83415	17.186473478922	1.002
17	83617	17.206473478922	1.002
17	83627	17.226473478922	1.002
17	83637	17.246473478922	1.002
17	84133	17.266473478922	1.002
17	84328	17.286473478922	1.002
17	84530	17.306473478922	1.002
17	84540	17.326473478922	1.002
17	84550	17.346473478922	1.002
17	85078	17.366473478922	1.002
17	85273	17.386473478922	1.002
17	85475	17.406473478922	1.002
17	85485	17.426473478922	1.002
17	85495	17.446473478922	1.002
17	85980	17.466473478922	1.002
17	86175	17.486473478922	1.002
17	86377	17.506473478922	1.002
17	86387	17.526473478922	1.002
17	86397	17.546473478922	1.002
17	86909	17.566473478922	1.002
17	87104	17.586473478922	1.002
17	87306	17.606473478922	1.002
17	87316	17.626473478922	1.002
17	87326	17.646473478922	1.002
17	87822	17.666473478922	1.002
17	88017	17.686473478922	1.002
17	88219	17.706473478922	1.002
17	88229	17.726473478922	1.002
17	88239	17.746473478922	1.002
17	88734	17.766473478922	1.002
17	88929	17.786473478922	1.002
17	89131	17.806473478922	1.002
17	89141	17.826473478922	1.002
17	89151	17.846473478922	1.002
17	89642	17.866473478922	1.002
17	89837	17.886473478922	1.002
17	90039	17.906473478922	1.002
17	90049	17.926473478922	1.002
17	90059	17.946473478922	1.002
17	90555	17.966473478922	1.002
17	90750	17.986473478922	1.002
17	90952	18.006473478922	1.002
17	90962	18.026473478922	1.002
17	90972	18.046473478922	1.002
17	91500	18.066473478922	1.002
17	91695	18.086473478922	1.002
17	91897	18.106473478922	1.002
17	91907	18.126473478922	1.002
17	91917	18.146473478922	1.002
17	92445	18.166473478922	1.002
17	92640	18.186473478922	1.002
17	92842	18.206473478922	1.002
17	92852	18.226473478922	1.002
17	92862	18.246473478922	1.002
17	93358	18.266473478922	1.002
17	93553	18.286473478922	1.002
17	93755	18.306473478922	1.002
17	93765	18.326473478922	1.002
17	93775	18.346473478922	1.002
17	94276	18.366473478922	1.002
17	94471	18.386473478922	1.002
17	94673	18.406473478922	1.002
17	94683	18.426473478922	1.002
17	94693	18.446473478922	1.002
17	95189	18.466473478922	1.002
17	95384	18.486473478922	1.002
17	95586	18.506473478922	1.002
17	95596	18.526473478922	1.002
17	95606	18.546473478922	1.002
17	96102	18.566473478922	1.002
17	96297	18.586473478922	1.002
17	96499	18.606473478922	1.002
17	96509	18.626473478922	1.002
17	96519	18.646473478922	1.002
17	97031	18.666473478922	1.002
17	97226	18.686473478922	1.002
17	97428	18.706473478922	1.002
17	97438	18.726473478922	1.002
17	97448	18.746473478922	1.002
17	97960	18.766473478922	1.002
17	98155	18.786473478922	1.002
17	98357	18.806473478922	1.002
17	98367	18.826473478922	1.002
17	98377	18.846473478922	1.002
17	98878	18.866473478922	1.002
17	99073	18.886473478922	1.002
17	99275	18.906473478922	1.002
17	99285	18.926473478922	1.002
17	99295	18.946473478922	1.002
17	99775	18.966473478922	1.002
17	99970	18.986473478922	1.002
17	100172	19.006473478922	1.002
17	100182	19.026473478922	1.002
17	100192	19.046473478922	1.002
17	100715	19.066473478922	1.002
17	100910	19.086473478922	1.002
17	101112	19.106473478922	1.002
17	101122	19.126473478922	1.002
17	101132	19.146473478922	1.002
17	101633	19.166473478922	1.002
17	101828	19.186473478922	1.002
17	102030	19.206473478922	1.002
17	102040	19.226473478922	1.002
17	102050	19.246473478922	1.002
17	102557	19.266473478922	1.002
17	102752	19.286473478922	1.002
17	102954	19.306473478922	1.002
17	102964	19.326473478922	1.002
17	102974	19.346473478922	1.002
17	103448	19.366473478922	1.002
17	103643	19.386473478922	1.002
17	103845	19.406473478922	1.002
17	103855	19.426473478922	1.002
17	103865	19.446473478922	1.002
17	104355	19.466473478922	1.002
17	104550	19.486473478922	1.002
17	104752	19.506473478922	1.002
17	104762	19.526473478922	1.002
17	104772	19.546473478922	1.002
17	105273	19.566473478922	1.002
17	105468	19.586473478922	1.002
17	105670	19.606473478922	1.002
17	105680	19.626473478922	1.002
17	105690	19.646473478922	1.002
17	106191	19.666473478922	1.002
17	106386	19.686473478922	1.002
17	106588	19.706473478922	1.002
17	106598	19.726473478922	1.002
17	106608	19.746473478922	1.002
17	107088	19.766473478922	1.002
17	107283	19.786473478922	1.002
17	107485	19.806473478922	1.002
17	107495	19.826473478922	1.002
17	107505	19.846473478922	1.002
17	108006	19.866473478922	1.002
17	108201	19.886473478922	1.002
17	108403	19.906473478922	1.002
17	108413	19.926473478922	1.002
17	108423	19.946473478922	1.002
17	108913	19.966473478922	1.002
17	109108	19.986473478922	1.002
17	109310	20.006473478922	1.002
17	109320	20.026473478922	1.002
17	109330	20.046473478922	1.002
17	109826	20.066473478922	1.002
17	110021	20.086473478922	1.002
17	110223	20.106473478922	1.002
17	110233	20.126473478922	1.002
17	110243	20.146473478922	1.002
17	110755	20.166473478922	1.002
17	110950	20.186473478922	1.002
17	111152	20.206473478922	1.002
17	111162	20.226473478922	1.002
17	111172	20.246473478922	1.002
17	111673	20.266473478922	1.002
17	111868	20.286473478922	1.002
17	112070	20.306473478922	1.002
17	112080	20.326473478922	1.002
17	112090	20.346473478922	1.002
17	112586	20.366473478922	1.002
17	112781	20.386473478922	1.002
17	112983	20.406473478922	1.002
17	112993	20.426473478922	1.002
17	113003	20.446473478922	1.002
17	113483	20.466473478922	1.002
17	113678	20.486473478922	1.002
17	113880	20.506473478922	1.002
17	113890	20.526473478922	1.002
17	113900	20.546473478922	1.002
17	114390	20.566473478922	1.002
17	114585	20.586473478922	1.002
17	114787	20.606473478922	1.002
17	114797	20.626473478922	1.002
17	114807	20.646473478922	1.002
17	115313	20.666473478922	1.002
17	115508	20.686473478922	1.002
17	115710	20.706473478922	1.002
17	115720	20.726473478922	1.002
17	115730	20.746473478922	1.002
17	116231	20.766473478922	1.002
17	116426	20.786473478922	1.002
17	116628	20.806473478922	1.002
17	116638	20.826473478922	1.002
17	116648	20.846473478922	1.002
17	117128	20.866473478922	1.002
17	117323	20.886473478922	1.002
17	117525	20.906473478922	1.002
17	117535	20.926473478922	1.002
17	117545	20.946473478922	1.002
17	118057	20.966473478922	1.002
17	118252	20.986473478922	1.002
17	118454	21.006473478922	1.002
17	118464	21.026473478922	1.002
17	118474	21.046473478922	1.002
17	118970	21.066473478922	1.002
17	119165	21.086473478922	1.002
17	119367	21.106473478922	1.002
17	119377	21.126473478922	1.002
17	119387	21.146473478922	1.002
17	119877	21.166473478922	1.002
17	120072	21.186473478922	1.002
17	120274	21.206473478922	1.002
17	120284	21.226473478922	1.002
17	120294	21.246473478922	1.002
17	120801	21.266473478922	1.002
17	120996	21.286473478922	1.002
17	121198	21.306473478922	1.002
17	121208	21.326473478922	1.002
17	121218	21.346473478922	1.002
17	121703	21.366473478922	1.002
17	121898	21.386473478922	1.002
17	122100	21.406473478922	1.002
17	122110	21.426473478922	1.002
17	122120	21.446473478922	1.002
17	122627	21.466473478922	1.002
17	122822	21.486473478922	1.002
17	123024	21.506473478922	1.002
17	123034	21.526473478922	1.002
17	123044	21.546473478922	1.002
17	123583	21.566473478922	1.002
17	123778	21.586473478922	1.002
17	123980	21.606473478922	1.002
17	123990	21.626473478922	1.002
17	124000	21.646473478922	1.002
17	124507	21.666473478922	1.002
17	124702	21.686473478922	1.002
17	124904	21.706473478922	1.002
17	124914	21.726473478922	1.002
17	124924	21.746473478922	1.002
17	125420	21.766473478922	1.002
17	125615	21.786473478922	1.002
17	125817	21.806473478922	1.002
17	125827	21.826473478922	1.002
17	125837	21.846473478922	1.002
17	126333	21.866473478922	1.002
17	126528	21.886473478922	1.002
17	126730	21.906473478922	1.002
17	126740	21.926473478922	1.002
17	126750	21.946473478922	1.002
17	127246	21.966473478922	1.002
17	127441	21.986473478922	1.002
17	127643	22.006473478922	1.002
17	127653	22.026473478922	1.002
17	127663	22.046473478922	1.002
17	128169	22.066473478922	1.002
17	128364	22.086473478922	1.002
17	128566	22.106473478922	1.002
17	128576	22.126473478922	1.002
17	128586	22.146473478922	1.002
17	129098	22.166473478922	1.002
17	129293	22.186473478922	1.002
17	129495	22.206473478922	1.002
17	129505	22.226473478922	1.002
17	129515	22.246473478922	1.002
17	130037	22.266473478922	1.002
17	130232	22.286473478922	1.002
17	130434	22.306473478922	1.002
17	130444	22.326473478922	1.002
17	130454	22.346473478922	1.002
17	130934	22.366473478922	1.002
17	131129	22.386473478922	1.002
17	131331	22.406473478922	1.002
17	131341	22.426473478922	1.002
17	131351	22.446473478922	1.002
17	131852	22.466473478922	1.002
17	132047	22.486473478922	1.002
17	132249	22.506473478922	1.002
17	132259	22.526473478922	1.002
17	132269	22.546473478922	1.002
17	132754	22.566473478922	1.002
17	132949	22.586473478922	1.002
17	133151	22.606473478922	1.002
17	133161	22.626473478922	1.002
17	133171	22.646473478922	1.002
17	133683	22.666473478922	1.002
17	133878	22.686473478922	1.002
17	134080	22.706473478922	1.002
17	134090	22.726473478922	1.002
17	134100	22.746473478922	1.002
17	134601	22.766473478922	1.002
17	134796	22.786473478922	1.002
17	134998	22.806473478922	1.002
17	135008	22.826473478922	1.002
17	135018	22.846473478922	1.002
17	135535	22.866473478922	1.002
17	135730	22.886473478922	1.002
17	135932	22.906473478922	1.002
17	135942	22.926473478922	1.002
17	135952	22.946473478922	1.002
17	136421	22.966473478922	1.002
17	136616	22.986473478922	1.002
17	136818	23.006473478922	1.002
17	136828	23.026473478922	1.002
17	136838	23.046473478922	1.002
17	137339	23.066473478922	1.002
17	137534	23.086473478922	1.002
17	137736	23.106473478922	1.002
17	137746	23.126473478922	1.002
17	137756	23.146473478922	1.002
17	138279	23.166473478922	1.002
17	138474	23.186473478922	1.002
17	138676	23.206473478922	1.002
17	138686	23.226473478922	1.002
17	138696	23.246473478922	1.002
17	139192	23.266473478922	1.002
17	139387	23.286473478922	1.002
17	139589	23.306473478922	1.002
17	139599	23.326473478922	1.002
17	139609	23.346473478922	1.002
17	140116	23.366473478922	1.002
17	140311	23.386473478922	1.002
17	140513	23.406473478922	1.002
17	140523	23.426473478922	1.002
17	140533	23.446473478922	1.002
17	141029	23.466473478922	1.002
17	141224	23.486473478922	1.002
17	141426	23.506473478922	1.002
17	141436	23.526473478922	1.002
17	141446	23.546473478922	1.002
17	141942	23.566473478922	1.002
17	142137	23.586473478922	1.002
17	142339	23.606473478922	1.002
17	142349	23.626473478922	1.002
17	142359	23.646473478922	1.002
17	142834	23.666473478922	1.002
17	143029	23.686473478922	1.002
17	143231	23.706473478922	1.002
17	143241	23.726473478922	1.002
17	143251	23.746473478922	1.002
17	143747	23.766473478922	1.002
17	143942	23.786473478922	1.002
17	144144	23.806473478922	1.002
17	144154	23.826473478922	1.002
17	144164	23.846473478922	1.002
17	144649	23.866473478922	1.002
17	144844	23.886473478922	1.002
17	145046	23.906473478922	1.002
17	145056	23.926473478922	1.002
17	145066	23.946473478922	1.002
17	145573	23.966473478922	1.002
17	145768	23.986473478922	1.002
17	145970	24.006473478922	1.002
17	145980	24.026473478922	1.002
17	145990	24.046473478922	1.002
17	146486	24.066473478922	1.002
17	146681	24.086473478922	1.002
17	146883	24.106473478922	1.002
17	146893	24.126473478922	1.002
17	146903	24.146473478922	1.002
17	147404	24.166473478922	1.002
17	147599	24.186473478922	1.002
17	147801	24.206473478922	1.002
17	147811	24.226473478922	1.002
17	147821	24.246473478922	1.002
17	148312	24.266473478922	1.002
17	148507	24.286473478922	1.002
17	148709	24.306473478922	1.002
17	148719	24.326473478922	1.002
17	148729	24.346473478922	1.002
17	149220	24.366473478922	1.002
17	149415	24.386473478922	1.002
17	149617	24.406473478922	1.002
17	149627	24.426473478922	1.002
17	149637	24.446473478922	1.002
17	150133	24.466473478922	1.002
17	150328	24.486473478922	1.002
17	150530	24.506473478922	1.002
17	150540	24.526473478922	1.002
17	150550	24.546473478922	1.002
17	151040	24.566473478922	1.002
17	151235	24.586473478922	1.002
17	151437	24.606473478922	1.002
17	151447	24.626473478922	1.002
17	151457	24.646473478922	1.002
17	151980	24.666473478922	1.002
17	152175	24.686473478922	1.002
17	152377	24.706473478922	1.002
17	152387	24.726473478922	1.002
17	152397	24.746473478922	1.002
17	152898	24.766473478922	1.002
17	153093	24.786473478922	1.002
17	153295	24.806473478922	1.002
17	153305	24.826473478922	1.002
17	153315	24.846473478922	1.002
17	153816	24.866473478922	1.002
17	154011	24.886473478922	1.002
17	154213	24.906473478922	1.002
17	154223	24.926473478922	1.002
17	154233	24.946473478922	1.002
17	154718	24.966473478922	1.002
17	154913	24.986473478922	1.002
17	155115	25.006473478922	1.002
17	155125	25.026473478922	1.002
17	155135	25.046473478922	1.002
17	155615	25.066473478922	1.002
17	155810	25.086473478922	1.002
17	156012	25.106473478922	1.002
17	156022	25.126473478922	1.002
17	156032	25.146473478922	1.002
17	156517	25.166473478922	1.002
17	156712	25.186473478922	1.002
17	156914	25.206473478922	1.002
17	156924	25.226473478922	1.002
17	156934	25.246473478922	1.002
17	157430	25.266473478922	1.002
17	157625	25.286473478922	1.002
17	157827	25.306473478922	1.002
17	157837	25.326473478922	1.002
17	157847	25.346473478922	1.002
17	158359	25.366473478922	1.002
17	158554	25.386473478922	1.002
17	158756	25.406473478922	1.002
17	158766	25.426473478922	1.002
17	158776	25.446473478922	1.002
17	159272	25.466473478922	1.002
17	159467	25.486473478922	1.002
17	159669	25.506473478922	1.002
17	159679	25.526473478922	1.002
17	159689	25.546473478922	1.002
17	160185	25.566473478922	1.002
17	160380	25.586473478922	1.002
17	160582	25.606473478922	1.002
17	160592	25.626473478922	1.002
17	160602	25.646473478922	1.002
17	161098	25.666473478922	1.002
17	161293	25.686473478922	1.002
17	161495	25.706473478922	1.002
17	161505	25.726473478922	1.002
17	161515	25.746473478922	1.002
17	161989	25.766473478922	1.002
17	162184	25.786473478922	1.002
17	162386	25.806473478922	1.002
17	162396	25.826473478922	1.002
17	162406	25.846473478922	1.002
17	162918	25.866473478922	1.002
17	163113	25.886473478922	1.002
17	163315	25.906473478922	1.002
17	163325	25.926473478922	1.002
17	163335	25.946473478922	1.002
17	163847	25.966473478922	1.002
17	164042	25.986473478922	1.002
17	164244	26.006473478922	1.002
17	164254	26.026473478922	1.002
17	164264	26.046473478922	1.002
17	164776	26.066473478922	1.002
17	164971	26.086473478922	1.002
17	165173	26.106473478922	1.002
17	165183	26.126473478922	1.002
17	165193	26.146473478922	1.002
17	165694	26.166473478922	1.002
17	165889	26.186473478922	1.002
17	166091	26.206473478922	1.002
17	166101	26.226473478922	1.002
17	166111	26.246473478922	1.002
17	166618	26.266473478922	1.002
17	166813	26.286473478922	1.002
17	167015	26.306473478922	1.002
17	167025	26.326473478922	1.002
17	167035	26.346473478922	1.002
17	167531	26.366473478922	1.002
17	167726	26.386473478922	1.002
17	167928	26.406473478922	1.002
17	167938	26.426473478922	1.002
17	167948	26.446473478922	1.002
17	168460	26.466473478922	1.002
17	168655	26.486473478922	1.002
17	168857	26.506473478922	1.002
17	168867	26.526473478922	1.002
17	168877	26.546473478922	1.002
17	169378	26.566473478922	1.002
17	169573	26.586473478922	1.002
17	169775	26.606473478922	1.002
17	169785	26.626473478922	1.002
17	169795	26.646473478922	1.002
17	170280	26.666473478922	1.002
17	170475	26.686473478922	1.002
17	170677	26.706473478922	1.002
17	170687	26.726473478922	1.002
17	170697	26.746473478922	1.002
17	171193	26.766473478922	1.002
17	171388	26.786473478922	1.002
17	171590	26.806473478922	1.002
17	171600	26.826473478922	1.002
17	171610	26.846473478922	1.002
17	172100	26.866473478922	1.002
17	172295	26.886473478922	1.002
17	172497	26.906473478922	1.002
17	172507	26.926473478922	1.002
17	172517	26.946473478922	1.002
17	173013	26.966473478922	1.002
17	173208	26.986473478922	1.002
17	173410	27.006473478922	1.002
17	173420	27.026473478922	1.002
17	173430	27.046473478922	1.002
17	173910	27.066473478922	1.002
17	174105	27.086473478922	1.002
17	174307	27.106473478922	1.002
17	174317	27.126473478922	1.002
17	174327	27.146473478922	1.002
17	174818	27.166473478922	1.002
17	175013	27.186473478922	1.002
17	175215	27.206473478922	1.002
17	175225	27.226473478922	1.002
17	175235	27.246473478922	1.002
17	175747	27.266473478922	1.002
17	175942	27.286473478922	1.002
17	176144	27.306473478922	1.002
17	176154	27.326473478922	1.002
17	176164	27.346473478922	1.002
17	176659	27.366473478922	1.002
17	176854	27.386473478922	1.002
17	177056	27.406473478922	1.002
17	177066	27.426473478922	1.002
17	177076	27.446473478922	1.002
17	177577	27.466473478922	1.002
17	177772	27.486473478922	1.002
17	177974	27.506473478922	1.002
17	177984	27.526473478922	1.002
17	177994	27.546473478922	1.002
17	178473	27.566473478922	1.002
17	178668	27.586473478922	1.002
17	178870	27.606473478922	1.002
17	178880	27.626473478922	1.002
17	178890	27.646473478922	1.002
17	179391	27.666473478922	1.002
17	179586	27.686473478922	1.002
17	179788	27.706473478922	1.002
17	179798	27.726473478922	1.002
17	179808	27.746473478922	1.002
17	180315	27.766473478922	1.002
17	180510	27.786473478922	1.002
17	180712	27.806473478922	1.002
17	180722	27.826473478922	1.002
17	180732	27.846473478922	1.002
17	181228	27.866473478922	1.002
17	181423	27.886473478922	1.002
17	181625	27.906473478922	1.002
17	181635	27.926473478922	1.002
17	181645	27.946473478922	1.002
17	182146	27.966473478922	1.002
17	182341	27.986473478922	1.002
17	182543	28.006473478922	1.002
17	182553	28.026473478922	1.002
17	182563	28.046473478922	1.002
17	183059	28.066473478922	1.002
17	183254	28.086473478922	1.002
17	183456	28.106473478922	1.002
17	183466	28.126473478922	1.002
17	183476	28.146473478922	1.002
17	183972	28.166473478922	1.002
17	184167	28.186473478922	1.002
17	184369	28.206473478922	1.002
17	184379	28.226473478922	1.002
17	184389	28.246473478922	1.002
17	184880	28.266473478922	1.002
17	185075	28.286473478922	1.002
17	185277	28.306473478922	1.002
17	185287	28.326473478922	1.002
17	185297	28.346473478922	1.002
17	185798	28.366473478922	1.002
17	185993	28.386473478922	1.002
17	186195	28.406473478922	1.002
17	186205	28.426473478922	1.002
17	186215	28.446473478922	1.002
17	186711	28.466473478922	1.002
17	186906	28.486473478922	1.002
17	187108	28.506473478922	1.002
17	187118	28.526473478922	1.002
17	187128	28.546473478922	1.002
17	187619	28.566473478922	1.002
17	187814	28.586473478922	1.002
17	188016	28.606473478922	1.002
17	188026	28.626473478922	1.002
17	188036	28.646473478922	1.002
17	188521	28.666473478922	1.002
17	188716	28.686473478922	1.002
17	188918	28.706473478922	1.002
17	188928	28.726473478922	1.002
17	188938	28.746473478922	1.002
17	189423	28.766473478922	1.002
17	189618	28.786473478922	1.002
17	189820	28.806473478922	1.002
17	189830	28.826473478922	1.002
17	189840	28.846473478922	1.002
17	190341	28.866473478922	1.002
17	190536	28.886473478922	1.002
17	190738	28.906473478922	1.002
17	190748	28.926473478922	1.002
17	190758	28.946473478922	1.002
17	191248	28.966473478922	1.002
17	191443	28.986473478922	1.002
17	191645	29.006473478922	1.002
17	191655	29.026473478922	1.002
17	191665	29.046473478922	1.002
17	192177	29.066473478922	1.002
17	192372	29.086473478922	1.002
17	192574	29.106473478922	1.002
17	192584	29.126473478922	1.002
17	192594	29.146473478922	1.002
17	193095	29.166473478922	1.002
17	193290	29.186473478922	1.002
17	193492	29.206473478922	1.002
17	193502	29.226473478922	1.002
17	193512	29.246473478922	1.002
17	194019	29.266473478922	1.002
17	194214	29.286473478922	1.002
17	194416	29.306473478922	1.002
17	194426	29.326473478922	1.002
17	194436	29.346473478922	1.002
17	194948	29.366473478922	1.002
17	195143	29.386473478922	1.002
17	195345	29.406473478922	1.002
17	195355	29.426473478922	1.002
17	195365	29.446473478922	1.002
17	195855	29.466473478922	1.002
17	196050	29.486473478922	1.002
17	196252	29.506473478922	1.002
17	196262	29.526473478922	1.002
17	196272	29.546473478922	1.002
17	196773	29.566473478922	1.002
17	196968	29.586473478922	1.002
17	197170	29.606473478922	1.002
17	197180	29.626473478922	1.002
17	197190	29.646473478922	1.002
17	197697	29.666473478922	1.002
17	197892	29.686473478922	1.002
17	198094	29.706473478922	1.002
17	198104	29.726473478922	1.002
17	198114	29.746473478922	1.002
17	198615	29.766473478922	1.002
17	198810	29.786473478922	1.002
17	199012	29.806473478922	1.002
17	199022	29.826473478922	1.002
17	199032	29.846473478922	1.002
17	199539	29.866473478922	1.002
17	199734	29.886473478922	1.002
17	199936	29.906473478922	1.002
17	199946	29.926473478922	1.002
17	199956	29.946473478922	1.002
17	200462	29.966473478922	1.002
17	200657	29.986473478922	1.002
17	200859	30.006473478922	1.002
17	200869	30.026473478922	1.002
17	200879	30.046473478922	1.002
17	201386	30.066473478922	1.002
17	201581	30.086473478922	1.002
17	201783	30.106473478922	1.002
17	201793	30.126473478922	1.002
17	201803	30.146473478922	1.002
17	202288	30.166473478922	1.002
17	202483	30.186473478922	1.002
17	202685	30.206473478922	1.002
17	202695	30.226473478922	1.002
17	202705	30.246473478922	1.002
17	203179	30.266473478922	1.002
17	203374	30.286473478922	1.002
17	203576	30.306473478922	1.002
17	203586	30.326473478922	1.002
17	203596	30.346473478922	1.002
17	204059	30.366473478922	1.002
17	204254	30.386473478922	1.002
17	204456	30.406473478922	1.002
17	204466	30.426473478922	1.002
17	204476	30.446473478922	1.002
17	204972	30.466473478922	1.002
17	205167	30.486473478922	1.002
17	205369	30.506473478922	1.002
17	205379	30.526473478922	1.002
17	205389	30.546473478922	1.002
17	205901	30.566473478922	1.002
17	206096	30.586473478922	1.002
17	206298	30.606473478922	1.002
17	206308	30.626473478922	1.002
17	206318	30.646473478922	1.002
17	206830	30.666473478922	1.002
17	207025	30.686473478922	1.002
17	207227	30.706473478922	1.002
17	207237	30.726473478922	1.002
17	207247	30.746473478922	1.002
17	207732	30.766473478922	1.002
17	207927	30.786473478922	1.002
17	208129	30.806473478922	1.002
17	208139	30.826473478922	1.002
17	208149	30.846473478922	1.002
17	208634	30.866473478922	1.002
17	208829	30.886473478922	1.002
17	209031	30.906473478922	1.002
17	209041	30.926473478922	1.002
17	209051	30.946473478922	1.002
17	209568	30.966473478922	1.002
17	209763	30.986473478922	1.002
17	209965	31.006473478922	1.002
17	209975	31.026473478922	1.002
17	209985	31.046473478922	1.002
17	210481	31.066473478922	1.002
17	210676	31.086473478922	1.002
17	210878	31.106473478922	1.002
17	210888	31.126473478922	1.002
17	210898	31.146473478922	1.002
17	211399	31.166473478922	1.002
17	211594	31.186473478922	1.002
17	211796	31.206473478922	1.002
17	211806	31.226473478922	1.002
17	211816	31.246473478922	1.002
17	212328	31.266473478922	1.002
17	212523	31.286473478922	1.002
17	212725	31.306473478922	1.002
17	212735	31.326473478922	1.002
17	212745	31.346473478922	1.002
17	213241	31.366473478922	1.002
17	213436	31.386473478922	1.002
17	213638	31.406473478922	1.002
17	213648	31.426473478922	1.002
17	213658	31.446473478922	1.002
17	214149	31.466473478922	1.002
17	214344	31.486473478922	1.002
17	214546	31.506473478922	1.002
17	214556	31.526473478922	1.002
17	214566	31.546473478922	1.002
17	215067	31.566473478922	1.002
17	215262	31.586473478922	1.002
17	215464	31.606473478922	1.002
17	215474	31.626473478922	1.002
17	215484	31.646473478922	1.002
17	215974	31.666473478922	1.002
17	216169	31.686473478922	1.002
17	216371	31.706473478922	1.002
17	216381	31.726473478922	1.002
17	216391	31.746473478922	1.002
17	216881	31.766473478922	1.002
17	217076	31.786473478922	1.002
17	217278	31.806473478922	1.002
17	217288	31.826473478922	1.002
17	217298	31.846473478922	1.002
17	217794	31.866473478922	1.002
17	217989	31.886473478922	1.002
17	218191	31.906473478922	1.002
17	218201	31.926473478922	1.002
17	218211	31.946473478922	1.002
17	218718	31.966473478922	1.002
17	218913	31.986473478922	1.002
17	219115	32.006473478922	1.002
17	219125	32.026473478922	1.002
17	219135	32.046473478922	1.002
17	219620	32.066473478922	1.002
17	219815	32.086473478922	1.002
17	220017	32.106473478922	1.002
17	220027	32.126473478922	1.002
17	220037	32.146473478922	1.002
17	220516	32.166473478922	1.002
17	220711	32.186473478922	1.002
17	220913	32.206473478922	1.002
17	220923	32.226473478922	1.002
17	220933	32.246473478922	1.002
17	221408	32.266473478922	1.002
17	221603	32.286473478922	1.002
17	221805	32.306473478922	1.002
17	221815	32.326473478922	1.002
17	221825	32.346473478922	1.002
17	222315	32.366473478922	1.002
17	222510	32.386473478922	1.002
17	222712	32.406473478922	1.002
17	222722	32.426473478922	1.002
17	222732	32.446473478922	1.002
17	223239	32.466473478922	1.002
17	223434	32.486473478922	1.002
17	223636	32.506473478922	1.002
17	223646	32.526473478922	1.002
17	223656	32.546473478922	1.002
17	224146	32.566473478922	1.002
17	224341	32.586473478922	1.002
17	224543	32.606473478922	1.002
17	224553	32.626473478922	1.002
17	224563	32.646473478922	1.002
17	225059	32.666473478922	1.002
17	225254	32.686473478922	1.002
17	225456	32.706473478922	1.002
17	225466	32.726473478922	1.002
17	225476	32.746473478922	1.002
17	225977	32.766473478922	1.002
17	226172	32.786473478922	1.002
17	226374	32.806473478922	1.002
17	226384	32.826473478922	1.002
17	226394	32.846473478922	1.002
17	226890	32.866473478922	1.002
17	227085	32.886473478922	1.002
17	227287	32.906473478922	1.002
17	227297	32.926473478922	1.002
17	227307	32.946473478922	1.002
17	227808	32.966473478922	1.002
17	228003	32.986473478922	1.002
17	228205	33.006473478922	1.002
17	228215	33.026473478922	1.002
17	228225	33.046473478922	1.002
17	228710	33.066473478922	1.002
17	228905	33.086473478922	1.002
17	229107	33.106473478922	1.002
17	229117	33.126473478922	1.002
17	229127	33.146473478922	1.002
17	229623	33.166473478922	1.002
17	229818	33.186473478922	1.002
17	230020	33.206473478922	1.002
17	230030	33.226473478922	1.002
17	230040	33.246473478922	1.002
17	230530	33.266473478922	1.002
17	230725	33.286473478922	1.002
17	230927	33.306473478922	1.002
17	230937	33.326473478922	1.002
17	230947	33.346473478922	1.002
17	231448	33.366473478922	1.002
17	231643	33.386473478922	1.002
17	231845	33.406473478922	1.002
17	231855	33.426473478922	1.002
17	231865	33.446473478922	1.002
17	232355	33.466473478922	1.002
17	232550	33.486473478922	1.002
17	232752	33.506473478922	1.002
17	232762	33.526473478922	1.002
17	232772	33.546473478922	1.002
17	233252	33.566473478922	1.002
17	233447	33.586473478922	1.002
17	233649	33.606473478922	1.002
17	233659	33.626473478922	1.002
17	233669	33.646473478922	1.002
17	234170	33.666473478922	1.002
17	234365	33.686473478922	1.002
17	234567	33.706473478922	1.002
17	234577	33.726473478922	1.002
17	234587	33.746473478922	1.002
17	235077	33.766473478922	1.002
17	235272	33.786473478922	1.002
17	235474	33.806473478922	1.002
17	235484	33.826473478922	1.002
17	235494	33.846473478922	1.002
17	235984	33.866473478922	1.002
17	236179	33.886473478922	1.002
17	236381	33.906473478922	1.002
17	236391	33.926473478922	1.002
17	236401	33.946473478922	1.002
17	236913	33.966473478922	1.002
17	237108	33.986473478922	1.002
17	237310	34.006473478922	1.002
17	237320	34.026473478922	1.002
17	237330	34.046473478922	1.002
17	237820	34.066473478922	1.002
17	238015	34.086473478922	1.002
17	238217	34.106473478922	1.002
17	238227	34.126473478922	1.002
17	238237	34.146473478922	1.002
17	238749	34.166473478922	1.002
17	238944	34.186473478922	1.002
17	239146	34.206473478922	1.002
17	239156	34.226473478922	1.002
17	239166	34.246473478922	1.002
17	239667	34.266473478922	1.002
17	239862	34.286473478922	1.002
17	240064	34.306473478922	1.002
17	240074	34.326473478922	1.002
17	240084	34.346473478922	1.002
17	240585	34.366473478922	1.002
17	240780	34.386473478922	1.002
17	240982	34.406473478922	1.002
17	240992	34.426473478922	1.002
17	241002	34.446473478922	1.002
17	241487	34.466473478922	1.002
17	241682	34.486473478922	1.002
17	241884	34.506473478922	1.002
17	241894	34.526473478922	1.002
17	241904	34.546473478922	1.002
17	242427	34.566473478922	1.002
17	242622	34.586473478922	1.002
17	242824	34.606473478922	1.002
17	242834	34.626473478922	1.002
17	242844	34.646473478922	1.002
17	243319	34.666473478922	1.002
17	243514	34.686473478922	1.002
17	243716	34.706473478922	1.002
17	243726	34.726473478922	1.002
17	243736	34.746473478922	1.002
17	244221	34.766473478922	1.002
17	244416	34.786473478922	1.002
17	244618	34.806473478922	1.002
17	244628	34.826473478922	1.002
17	244638	34.846473478922	1.002
17	245139	34.866473478922	1.002
17	245334	34.886473478922	1.002
17	245536	34.906473478922	1.002
17	245546	34.926473478922	1.002
17	245556	34.946473478922	1.002
17	246041	34.966473478922	1.002
17	246236	34.986473478922	1.002
17	246438	35.006473478922	1.002
17	246448	35.026473478922	1.002
17	246458	35.046473478922	1.002
17	246970	35.066473478922	1.002
17	247165	35.086473478922	1.002
17	247367	35.106473478922	1.002
17	247377	35.126473478922	1.002
17	247387	35.146473478922	1.002
17	247888	35.166473478922	1.002
17	248083	35.186473478922	1.002
17	248285	35.206473478922	1.002
17	248295	35.226473478922	1.002
17	248305	35.246473478922	1.002
17	248795	35.266473478922	1.002
17	248990	35.286473478922	1.002
17	249192	35.306473478922	1.002
17	249202	35.326473478922	1.002
17	249212	35.346473478922	1.002
17	249724	35.366473478922	1.002
17	249919	35.386473478922	1.002
17	250121	35.406473478922	1.002
17	250131	35.426473478922	1.002
17	250141	35.446473478922	1.002
17	250637	35.466473478922	1.002
17	250832	35.486473478922	1.002
17	251034	35.506473478922	1.002
17	251044	35.526473478922	1.002
17	251054	35.546473478922	1.002
17	251555	35.566473478922	1.002
17	251750	35.586473478922	1.002
17	251952	35.606473478922	1.002
17	251962	35.626473478922	1.002
17	251972	35.646473478922	1.002
17	252446	35.666473478922	1.002
17	252641	35.686473478922	1.002
17	252843	35.706473478922	1.002
17	252853	35.726473478922	1.002
17	252863	35.746473478922	1.002
17	253386	35.766473478922	1.002
17	253581	35.786473478922	1.002
17	253783	35.806473478922	1.002
17	253793	35.826473478922	1.002
17	253803	35.846473478922	1.002
17	254326	35.866473478922	1.002
17	254521	35.886473478922	1.002
17	254723	35.906473478922	1.002
17	254733	35.926473478922	1.002
17	254743	35.946473478922	1.002
17	255255	35.966473478922	1.002
17	255450	35.986473478922	1.002
17	255652	36.006473478922	1.002
17	255662	36.026473478922	1.002
17	255672	36.046473478922	1.002
17	256157	36.066473478922	1.002
17	256352	36.086473478922	1.002
17	256554	36.106473478922	1.002
17	256564	36.126473478922	1.002
17	256574	36.146473478922	1.002
17	257070	36.166473478922	1.002
17	257265	36.186473478922	1.002
17	257467	36.206473478922	1.002
17	257477	36.226473478922	1.002
17	257487	36.246473478922	1.002
17	257983	36.266473478922	1.002
17	258178	36.286473478922	1.002
17	258380	36.306473478922	1.002
17	258390	36.326473478922	1.002
17	258400	36.346473478922	1.002
17	258901	36.366473478922	1.002
17	259096	36.386473478922	1.002
17	259298	36.406473478922	1.002
17	259308	36.426473478922	1.002
17	259318	36.446473478922	1.002
17	259814	36.466473478922	1.002
17	260009	36.486473478922	1.002
17	260211	36.506473478922	1.002
17	260221	36.526473478922	1.002
17	260231	36.546473478922	1.002
17	260705	36.566473478922	1.002
17	260900	36.586473478922	1.002
17	261102	36.606473478922	1.002
17	261112	36.626473478922	1.002
17	261122	36.646473478922	1.002
17	261607	36.666473478922	1.002
17	261802	36.686473478922	1.002
17	262004	36.706473478922	1.002
17	262014	36.726473478922	1.002
17	262024	36.746473478922	1.002
17	262525	36.766473478922	1.002
17	262720	36.786473478922	1.002
17	262922	36.806473478922	1.002
17	262932	36.826473478922	1.002
17	262942	36.846473478922	1.002
17	263427	36.866473478922	1.002
17	263622	36.886473478922	1.002
17	263824	36.906473478922	1.002
17	263834	36.926473478922	1.002
17	263844	36.946473478922	1.002
17	264351	36.966473478922	1.002
17	264546	36.986473478922	1.002
17	264748	37.006473478922	1.002
17	264758	37.026473478922	1.002
17	264768	37.046473478922	1.002
17	265253	37.066473478922	1.002
17	265448	37.086473478922	1.002
17	265650	37.106473478922	1.002
17	265660	37.126473478922	1.002
17	265670	37.146473478922	1.002
17	266150	37.166473478922	1.002
17	266345	37.186473478922	1.002
17	266547	37.206473478922	1.002
17	266557	37.226473478922	1.002
17	266567	37.246473478922	1.002
17	267057	37.266473478922	1.002
17	267252	37.286473478922	1.002
17	267454	37.306473478922	1.002
17	267464	37.326473478922	1.002
17	267474	37.346473478922	1.002
17	267981	37.366473478922	1.002
17	268176	37.386473478922	1.002
17	268378	37.406473478922	1.002
17	268388	37.426473478922	1.002
17	268398	37.446473478922	1.002
17	268894	37.466473478922	1.002
17	269089	37.486473478922	1.002
17	269291	37.506473478922	1.002
17	269301	37.526473478922	1.002
17	269311	37.546473478922	1.002
17	269807	37.566473478922	1.002
17	270002	37.586473478922	1.002
17	270204	37.606473478922	1.002
17	270214	37.626473478922	1.002
17	270224	37.646473478922	1.002
17	270709	37.666473478922	1.002
17	270904	37.686473478922	1.002
17	271106	37.706473478922	1.002
17	271116	37.726473478922	1.002
17	271126	37.746473478922	1.002
17	271638	37.766473478922	1.002
17	271833	37.786473478922	1.002
17	272035	37.806473478922	1.002
17	272045	37.826473478922	1.002
17	272055	37.846473478922	1.002
17	272545	37.866473478922	1.002
17	272740	37.886473478922	1.002
17	272942	37.906473478922	1.002
17	272952	37.926473478922	1.002
17	272962	37.946473478922	1.002
17	273453	37.966473478922	1.002
17	273648	37.986473478922	1.002
17	273850	38.006473478922	1.002
17	273860	38.026473478922	1.002
17	273870	38.046473478922	1.002
17	274387	38.066473478922	1.002
17	274582	38.086473478922	1.002
17	274784	38.106473478922	1.002
17	274794	38.126473478922	1.002
17	274804	38.146473478922	1.002
17	275300	38.166473478922	1.002
17	275495	38.186473478922	1.002
17	275697	38.206473478922	1.002
17	275707	38.226473478922	1.002
17	275717	38.246473478922	1.002
17	276202	38.266473478922	1.002
17	276397	38.286473478922	1.002
17	276599	38.306473478922	1.002
17	276609	38.326473478922	1.002
17	276619	38.346473478922	1.002
17	277131	38.366473478922	1.002
17	277326	38.386473478922	1.002
17	277528	38.406473478922	1.002
17	277538	38.426473478922	1.002
17	277548	38.446473478922	1.002
17	278028	38.466473478922	1.002
17	278223	38.486473478922	1.002
17	278425	38.506473478922	1.002
17	278435	38.526473478922	1.002
17	278445	38.546473478922	1.002
17	278952	38.566473478922	1.002
17	279147	38.586473478922	1.002
17	279349	38.606473478922	1.002
17	279359	38.626473478922	1.002
17	279369	38.646473478922	1.002
17	279870	38.666473478922	1.002
17	280065	38.686473478922	1.002
17	280267	38.706473478922	1.002
17	280277	38.726473478922	1.002
17	280287	38.746473478922	1.002
17	280783	38.766473478922	1.002
17	280978	38.786473478922	1.002
17	281180	38.806473478922	1.002
17	281190	38.826473478922	1.002
17	281200	38.846473478922	1.002
17	281696	38.866473478922	1.002
17	281891	38.886473478922	1.002
17	282093	38.906473478922	1.002
17	282103	38.926473478922	1.002
17	282113	38.946473478922	1.002
17	282625	38.966473478922	1.002
17	282820	38.986473478922	1.002
17	283022	39.006473478922	1.002
17	283032	39.026473478922	1.002
17	283042	39.046473478922	1.002
17	283527	39.066473478922	1.002
17	283722	39.086473478922	1.002
17	283924	39.106473478922	1.002
17	283934	39.126473478922	1.002
17	283944	39.146473478922	1.002
17	284424	39.166473478922	1.002
17	284619	39.186473478922	1.002
17	284821	39.206473478922	1.002
17	284831	39.226473478922	1.002
17	284841	39.246473478922	1.002
17	285332	39.266473478922	1.002
17	285527	39.286473478922	1.002
17	285729	39.306473478922	1.002
17	285739	39.326473478922	1.002
17	285749	39.346473478922	1.002
17	286245	39.366473478922	1.002
17	286440	39.386473478922	1.002
17	286642	39.406473478922	1.002
17	286652	39.426473478922	1.002
17	286662	39.446473478922	1.002
17	287163	39.466473478922	1.002
17	287358	39.486473478922	1.002
17	287560	39.506473478922	1.002
17	287570	39.526473478922	1.002
17	287580	39.546473478922	1.002
17	288081	39.566473478922	1.002
17	288276	39.586473478922	1.002
17	288478	39.606473478922	1.002
17	288488	39.626473478922	1.002
17	288498	39.646473478922	1.002
17	289005	39.666473478922	1.002
17	289200	39.686473478922	1.002
17	289402	39.706473478922	1.002
17	289412	39.726473478922	1.002
17	289422	39.746473478922	1.002
17	289918	39.766473478922	1.002
17	290113	39.786473478922	1.002
17	290315	39.806473478922	1.002
17	290325	39.826473478922	1.002
17	290335	39.846473478922	1.002
17	290820	39.866473478922	1.002
17	291015	39.886473478922	1.002
17	291217	39.906473478922	1.002
17	291227	39.926473478922	1.002
17	291237	39.946473478922	1.002
17	291717	39.966473478922	1.002
17	291912	39.986473478922	1.002
17	292114	40.006473478922	1.002
17	292124	40.026473478922	1.002
17	292134	40.046473478922	1.002
17	292641	40.066473478922	1.002
17	292836	40.086473478922	1.002
17	293038	40.106473478922	1.002
17	293048	40.126473478922	1.002
17	293058	40.146473478922	1.002
17	293559	40.166473478922	1.002
17	293754	40.186473478922	1.002
17	293956	40.206473478922	1.002
17	293966	40.226473478922	1.002
17	293976	40.246473478922	1.002
17	294461	40.266473478922	1.002
17	294656	40.286473478922	1.002
17	294858	40.306473478922	1.002
17	294868	40.326473478922	1.002
17	294878	40.346473478922	1.002
17	295401	40.366473478922	1.002
17	295596	40.386473478922	1.002
17	295798	40.406473478922	1.002
17	295808	40.426473478922	1.002
17	295818	40.446473478922	1.002
17	296314	40.466473478922	1.002
17	296509	40.486473478922	1.002
17	296711	40.506473478922	1.002
17	296721	40.526473478922	1.002
17	296731	40.546473478922	1.002
17	297232	40.566473478922	1.002
17	297427	40.586473478922	1.002
17	297629	40.606473478922	1.002
17	297639	40.626473478922	1.002
17	297649	40.646473478922	1.002
17	298118	40.666473478922	1.002
17	298313	40.686473478922	1.002
17	298515	40.706473478922	1.002
17	298525	40.726473478922	1.002
17	298535	40.746473478922	1.002
17	299026	40.766473478922	1.002
17	299221	40.786473478922	1.002
17	299423	40.806473478922	1.002
17	299433	40.826473478922	1.002
17	299443	40.846473478922	1.002
17	299944	40.866473478922	1.002
17	300139	40.886473478922	1.002
17	300341	40.906473478922	1.002
17	300351	40.926473478922	1.002
17	300361	40.946473478922	1.002
17	300868	40.966473478922	1.002
17	301063	40.986473478922	1.002
17	301265	41.006473478922	1.002
17	301275	41.026473478922	1.002
17	301285	41.046473478922	1.002
17	301760	41.066473478922	1.002
17	301955	41.086473478922	1.002
17	302157	41.106473478922	1.002
17	302167	41.126473478922	1.002
17	302177	41.146473478922	1.002
17	302662	41.166473478922	1.002
17	302857	41.186473478922	1.002
17	303059	41.206473478922	1.002
17	303069	41.226473478922	1.002
17	303079	41.246473478922	1.002
17	303580	41.266473478922	1.002
17	303775	41.286473478922	1.002
17	303977	41.306473478922	1.002
17	303987	41.326473478922	1.002
17	303997	41.346473478922	1.002
17	304498	41.366473478922	1.002
17	304693	41.386473478922	1.002
17	304895	41.406473478922	1.002
17	304905	41.426473478922	1.002
17	304915	41.446473478922	1.002
17	305411	41.466473478922	1.002
17	305606	41.486473478922	1.002
17	305808	41.506473478922	1.002
17	305818	41.526473478922	1.002
17	305828	41.546473478922	1.002
17	306308	41.566473478922	1.002
17	306503	41.586473478922	1.002
17	306705	41.606473478922	1.002
17	306715	41.626473478922	1.002
17	306725	41.646473478922	1.002
17	307226	41.666473478922	1.002
17	307421	41.686473478922	1.002
17	307623	41.706473478922	1.002
17	307633	41.726473478922	1.002
17	307643	41.746473478922	1.002
17	308139	41.766473478922	1.002
17	308334	41.786473478922	1.002
17	308536	41.806473478922	1.002
17	308546	41.826473478922	1.002
17	308556	41.846473478922	1.002
17	309041	41.866473478922	1.002
17	309236	41.886473478922	1.002
17	309438	41.906473478922	1.002
17	309448	41.926473478922	1.002
17	309458	41.946473478922	1.002
17	309964	41.966473478922	1.002
17	310159	41.986473478922	1.002
17	310361	42.006473478922	1.002
17	310371	42.026473478922	1.002
17	310381	42.046473478922	1.002
17	310872	42.066473478922	1.002
17	311067	42.086473478922	1.002
17	311269	42.106473478922	1.002
17	311279	42.126473478922	1.002
17	311289	42.146473478922	1.002
17	311785	42.166473478922	1.002
17	311980	42.186473478922	1.002
17	312182	42.206473478922	1.002
17	312192	42.226473478922	1.002
17	312202	42.246473478922	1.002
17	312698	42.266473478922	1.002
17	312893	42.286473478922	1.002
17	313095	42.306473478922	1.002
17	313105	42.326473478922	1.002
17	313115	42.346473478922	1.002
17	313611	42.366473478922	1.002
17	313806	42.386473478922	1.002
17	314008	42.406473478922	1.002
17	314018	42.426473478922	1.002
17	314028	42.446473478922	1.002
17	314529	42.466473478922	1.002
17	314724	42.486473478922	1.002
17	314926	42.506473478922	1.002
17	314936	42.526473478922	1.002
17	314946	42.546473478922	1.002
17	315463	42.566473478922	1.002
17	315658	42.586473478922	1.002
17	315860	42.606473478922	1.002
17	315870	42.626473478922	1.002
17	315880	42.646473478922	1.002
17	316365	42.666473478922	1.002
17	316560	42.686473478922	1.002
17	316762	42.706473478922	1.002
17	316772	42.726473478922	1.002
17	316782	42.746473478922	1.002
17	317278	42.766473478922	1.002
17	317473	42.786473478922	1.002
17	317675	42.806473478922	1.002
17	317685	42.826473478922	1.002
17	317695	42.846473478922	1.002
17	318191	42.866473478922	1.002
17	318386	42.886473478922	1.002
17	318588	42.906473478922	1.002
17	318598	42.926473478922	1.002
17	318608	42.946473478922	1.002
17	319120	42.966473478922	1.002
17	319315	42.986473478922	1.002
17	319517	43.006473478922	1.002
17	319527	43.026473478922	1.002
17	319537	43.046473478922	1.002
17	320054	43.066473478922	1.002
17	320249	43.086473478922	1.002
17	320451	43.106473478922	1.002
17	320461	43.126473478922	1.002
17	320471	43.146473478922	1.002
17	320951	43.166473478922	1.002
17	321146	43.186473478922	1.002
17	321348	43.206473478922	1.002
17	321358	43.226473478922	1.002
17	321368	43.246473478922	1.002
17	321880	43.266473478922	1.002
17	322075	43.286473478922	1.002
17	322277	43.306473478922	1.002
17	322287	43.326473478922	1.002
17	322297	43.346473478922	1.002
17	322766	43.366473478922	1.002
17	322961	43.386473478922	1.002
17	323163	43.406473478922	1.002
17	323173	43.426473478922	1.002
17	323183	43.446473478922	1.002
17	323690	43.466473478922	1.002
17	323885	43.486473478922	1.002
17	324087	43.506473478922	1.002
17	324097	43.526473478922	1.002
17	324107	43.546473478922	1.002
17	324614	43.566473478922	1.002
17	324809	43.586473478922	1.002
17	325011	43.606473478922	1.002
17	325021	43.626473478922	1.002
17	325031	43.646473478922	1.002
17	325532	43.666473478922	1.002
17	325727	43.686473478922	1.002
17	325929	43.706473478922	1.002
17	325939	43.726473478922	1.002
17	325949	43.746473478922	1.002
17	326423	43.766473478922	1.002
17	326618	43.786473478922	1.002
17	326820	43.806473478922	1.002
17	326830	43.826473478922	1.002
17	326840	43.846473478922	1.002
17	327336	43.866473478922	1.002
17	327531	43.886473478922	1.002
17	327733	43.906473478922	1.002
17	327743	43.926473478922	1.002
17	327753	43.946473478922	1.002
17	328243	43.966473478922	1.002
17	328438	43.986473478922	1.002
17	328640	44.006473478922	1.002
17	328650	44.026473478922	1.002
17	328660	44.046473478922	1.002
17	329140	44.066473478922	1.002
17	329335	44.086473478922	1.002
17	329537	44.106473478922	1.002
17	329547	44.126473478922	1.002
17	329557	44.146473478922	1.002
17	330058	44.166473478922	1.002
17	330253	44.186473478922	1.002
17	330455	44.206473478922	1.002
17	330465	44.226473478922	1.002
17	330475	44.246473478922	1.002
17	330971	44.266473478922	1.002
17	331166	44.286473478922	1.002
17	331368	44.306473478922	1.002
17	331378	44.326473478922	1.002
17	331388	44.346473478922	1.002
17	331867	44.366473478922	1.002
17	332062	44.386473478922	1.002
17	332264	44.406473478922	1.002
17	332274	44.426473478922	1.002
17	332284	44.446473478922	1.002
17	332758	44.466473478922	1.002
17	332953	44.486473478922	1.002
17	333155	44.506473478922	1.002
17	333165	44.526473478922	1.002
17	333175	44.546473478922	1.002
17	333682	44.566473478922	1.002
17	333877	44.586473478922	1.002
17	334079	44.606473478922	1.002
17	334089	44.626473478922	1.002
17	334099	44.646473478922	1.002
17	334590	44.666473478922	1.002
17	334785	44.686473478922	1.002
17	334987	44.706473478922	1.002
17	334997	44.726473478922	1.002
17	335007	44.746473478922	1.002
17	335503	44.766473478922	1.002
17	335698	44.786473478922	1.002
17	335900	44.806473478922	1.002
17	335910	44.826473478922	1.002
17	335920	44.846473478922	1.002
17	336411	44.866473478922	1.002
17	336606	44.886473478922	1.002
17	336808	44.906473478922	1.002
17	336818	44.926473478922	1.002
17	336828	44.946473478922	1.002
17	337324	44.966473478922	1.002
17	337519	44.986473478922	1.002
17	337721	45.006473478922	1.002
17	337731	45.026473478922	1.002
17	337741	45.046473478922	1.002
17	338248	45.066473478922	1.002
17	338443	45.086473478922	1.002
17	338645	45.106473478922	1.002
17	338655	45.126473478922	1.002
17	338665	45.146473478922	1.002
17	339172	45.166473478922	1.002
17	339367	45.186473478922	1.002
17	339569	45.206473478922	1.002
17	339579	45.226473478922	1.002
17	339589	45.246473478922	1.002
17	340101	45.266473478922	1.002
17	340296	45.286473478922	1.002
17	340498	45.306473478922	1.002
17	340508	45.326473478922	1.002
17	340518	45.346473478922	1.002
17	341035	45.366473478922	1.002
17	341230	45.386473478922	1.002
17	341432	45.406473478922	1.002
17	341442	45.426473478922	1.002
17	341452	45.446473478922	1.002
17	341969	45.466473478922	1.002
17	342164	45.486473478922	1.002
17	342366	45.506473478922	1.002
17	342376	45.526473478922	1.002
17	342386	45.546473478922	1.002
17	342855	45.566473478922	1.002
17	343050	45.586473478922	1.002
17	343252	45.606473478922	1.002
17	343262	45.626473478922	1.002
17	343272	45.646473478922	1.002
17	343768	45.666473478922	1.002
17	343963	45.686473478922	1.002
17	344165	45.706473478922	1.002
17	344175	45.726473478922	1.002
17	344185	45.746473478922	1.002
17	344664	45.766473478922	1.002
17	344859	45.786473478922	1.002
17	345061	45.806473478922	1.002
17	345071	45.826473478922	1.002
17	345081	45.846473478922	1.002
17	345566	45.866473478922	1.002
17	345761	45.886473478922	1.002
17	345963	45.906473478922	1.002
17	345973	45.926473478922	1.002
17	345983	45.946473478922	1.002
17	346479	45.966473478922	1.002
17	346674	45.986473478922	1.002
17	346876	46.006473478922	1.002
17	346886	46.026473478922	1.002
17	346896	46.046473478922	1.002
17	347392	46.066473478922	1.002
17	347587	46.086473478922	1.002
17	347789	46.106473478922	1.002
17	347799	46.126473478922	1.002
17	347809	46.146473478922	1.002
17	348299	46.166473478922	1.002
17	348494	46.186473478922	1.002
17	348696	46.206473478922	1.002
17	348706	46.226473478922	1.002
17	348716	46.246473478922	1.002
17	349228	46.266473478922	1.002
17	349423	46.286473478922	1.002
17	349625	46.306473478922	1.002
17	349635	46.326473478922	1.002
17	349645	46.346473478922	1.002
17	350141	46.366473478922	1.002
17	350336	46.386473478922	1.002
17	350538	46.406473478922	1.002
17	350548	46.426473478922	1.002
17	350558	46.446473478922	1.002
17	351064	46.466473478922	1.002
17	351259	46.486473478922	1.002
17	351461	46.506473478922	1.002
17	351471	46.526473478922	1.002
17	351481	46.546473478922	1.002
17	351972	46.566473478922	1.002
17	352167	46.586473478922	1.002
17	352369	46.606473478922	1.002
17	352379	46.626473478922	1.002
17	352389	46.646473478922	1.002
17	352896	46.666473478922	1.002
17	353091	46.686473478922	1.002
17	353293	46.706473478922	1.002
17	353303	46.726473478922	1.002
17	353313	46.746473478922	1.002
17	353820	46.766473478922	1.002
17	354015	46.786473478922	1.002
17	354217	46.806473478922	1.002
17	354227	46.826473478922	1.002
17	354237	46.846473478922	1.002
17	354760	46.866473478922	1.002
17	354955	46.886473478922	1.002
17	355157	46.906473478922	1.002
17	355167	46.926473478922	1.002
17	355177	46.946473478922	1.002
17	355683	46.966473478922	1.002
17	355878	46.986473478922	1.002
17	356080	47.006473478922	1.002
17	356090	47.026473478922	1.002
17	356100	47.046473478922	1.002
17	356607	47.066473478922	1.002
17	356802	47.086473478922	1.002
17	357004	47.106473478922	1.002
17	357014	47.126473478922	1.002
17	357024	47.146473478922	1.002
17	357531	47.166473478922	1.002
17	357726	47.186473478922	1.002
17	357928	47.206473478922	1.002
17	357938	47.226473478922	1.002
17	357948	47.246473478922	1.002
17	358465	47.266473478922	1.002
17	358660	47.286473478922	1.002
17	358862	47.306473478922	1.002
17	358872	47.326473478922	1.002
17	358882	47.346473478922	1.002
17	359383	47.366473478922	1.002
17	359578	47.386473478922	1.002
17	359780	47.406473478922	1.002
17	359790	47.426473478922	1.002
17	359800	47.446473478922	1.002
17	360296	47.466473478922	1.002
17	360491	47.486473478922	1.002
17	360693	47.506473478922	1.002
17	360703	47.526473478922	1.002
17	360713	47.546473478922	1.002
17	361204	47.566473478922	1.002
17	361399	47.586473478922	1.002
17	361601	47.606473478922	1.002
17	361611	47.626473478922	1.002
17	361621	47.646473478922	1.002
17	362133	47.666473478922	1.002
17	362328	47.686473478922	1.002
17	362530	47.706473478922	1.002
17	362540	47.726473478922	1.002
17	362550	47.746473478922	1.002
17	363035	47.766473478922	1.002
17	363230	47.786473478922	1.002
17	363432	47.806473478922	1.002
17	363442	47.826473478922	1.002
17	363452	47.846473478922	1.002
17	363948	47.866473478922	1.002
17	364143	47.886473478922	1.002
17	364345	47.906473478922	1.002
17	364355	47.926473478922	1.002
17	364365	47.946473478922	1.002
17	364872	47.966473478922	1.002
17	365067	47.986473478922	1.002
17	365269	48.006473478922	1.002
17	365279	48.026473478922	1.002
17	365289	48.046473478922	1.002
17	365774	48.066473478922	1.002
17	365969	48.086473478922	1.002
[...]
14	335897	44.800251984713	0.002
14	335928	44.850251984713	0.001
14	336805	44.900251984713	0.002
14	336836	44.950251984713	0.001
14	337718	45.000251984713	0.002
14	337749	45.050251984713	0.001
14	338642	45.100251984713	0.002
14	338673	45.150251984713	0.001
14	339566	45.200251984713	0.002
14	339597	45.250251984713	0.001
14	340495	45.300251984713	0.002
14	340526	45.350251984713	0.001
14	341429	45.400251984713	0.002
14	341460	45.450251984713	0.001
14	342363	45.500251984713	0.002
14	342394	45.550251984713	0.001
14	343249	45.600251984713	0.002
14	343280	45.650251984713	0.001
14	344162	45.700251984713	0.002
14	344193	45.750251984713	0.001
14	345058	45.800251984713	0.002
14	345089	45.850251984713	0.001
14	345960	45.900251984713	0.002
14	345991	45.950251984713	0.001
14	346873	46.000251984713	0.002
14	346904	46.050251984713	0.001
14	347786	46.100251984713	0.002
14	347817	46.150251984713	0.001
14	348693	46.200251984713	0.002
14	348724	46.250251984713	0.001
14	349622	46.300251984713	0.002
14	349653	46.350251984713	0.001
14	350535	46.400251984713	0.002
14	350566	46.450251984713	0.001
14	351458	46.500251984713	0.002
14	351489	46.550251984713	0.001
14	352366	46.600251984713	0.002
14	352397	46.650251984713	0.001
14	353290	46.700251984713	0.002
14	353321	46.750251984713	0.001
14	354214	46.800251984713	0.002
14	354245	46.850251984713	0.001
14	355154	46.900251984713	0.002
14	355185	46.950251984713	0.001
14	356077	47.000251984713	0.002
14	356108	47.050251984713	0.001
14	357001	47.100251984713	0.002
14	357032	47.150251984713	0.001
14	357925	47.200251984713	0.002
14	357956	47.250251984713	0.001
14	358859	47.300251984713	0.002
14	358890	47.350251984713	0.001
14	359777	47.400251984713	0.002
14	359808	47.450251984713	0.001
14	360690	47.500251984713	0.002
14	360721	47.550251984713	0.001
14	361598	47.600251984713	0.002
14	361629	47.650251984713	0.001
14	362527	47.700251984713	0.002
14	362558	47.750251984713	0.001
14	363429	47.800251984713	0.002
14	363460	47.850251984713	0.001
14	364342	47.900251984713	0.002
14	364373	47.950251984713	0.001
14	365266	48.000251984713	0.002
14	365297	48.050251984713	0.001
14	366168	48.100251984713	0.002
14	366199	48.150251984713	0.001
14	367081	48.200251984713	0.002
14	367112	48.250251984713	0.001
14	367999	48.300251984713	0.002
14	368030	48.350251984713	0.001
14	368901	48.400251984713	0.002
14	368932	48.450251984713	0.001
14	369797	48.500251984713	0.002
14	369828	48.550251984713	0.001
14	370726	48.600251984713	0.002
14	370757	48.650251984713	0.001
14	371638	48.700251984713	0.002
14	371669	48.750251984713	0.001
14	372567	48.800251984713	0.002
14	372598	48.850251984713	0.001
14	373464	48.900251984713	0.002
14	373495	48.950251984713	0.001
14	374414	49.000251984713	0.002
14	374445	49.050251984713	0.001
14	375364	49.100251984713	0.002
14	375395	49.150251984713	0.001
14	376272	49.200251984713	0.002
14	376303	49.250251984713	0.001
14	377196	49.300251984713	0.002
14	377227	49.350251984713	0.001
14	378098	49.400251984713	0.002
14	378129	49.450251984713	0.001
14	379016	49.500251984713	0.002
14	379047	49.550251984713	0.001
14	379939	49.600251984713	0.002
14	379970	49.650251984713	0.001
14	380868	49.700251984713	0.002
14	380899	49.750251984713	0.001
14	381775	49.800251984713	0.002
14	381806	49.850251984713	0.001
14	382715	49.900251984713	0.002
14	382746	49.950251984713	0.001
14	383601	50.000251984713	0.002
14	383632	50.050251984713	0.001
14	384509	50.100251984713	0.002
14	384540	50.150251984713	0.001
14	385438	50.200251984713	0.002
14	385469	50.250251984713	0.001
14	386362	50.300251984713	0.002
14	386393	50.350251984713	0.001
14	387264	50.400251984713	0.002
14	387295	50.450251984713	0.001
14	388161	50.500251984713	0.002
14	388192	50.550251984713	0.001
14	389079	50.600251984713	0.002
14	389110	50.650251984713	0.001
14	389992	50.700251984713	0.002
14	390023	50.750251984713	0.001
14	390910	50.800251984713	0.002
14	390941	50.850251984713	0.001
14	391839	50.900251984713	0.002
14	391870	50.950251984713	0.001
14	392741	51.000251984713	0.002
14	392772	51.050251984713	0.001
14	393654	51.100251984713	0.002
14	393685	51.150251984713	0.001
14	394567	51.200251984713	0.002
14	394598	51.250251984713	0.001
14	395469	51.300251984713	0.002
14	395500	51.350251984713	0.001
14	396398	51.400251984713	0.002
14	396429	51.450251984713	0.001
14	397311	51.500251984713	0.002
14	397342	51.550251984713	0.001
14	398235	51.600251984713	0.002
14	398266	51.650251984713	0.001
14	399126	51.700251984713	0.002
14	399157	51.750251984713	0.001
14	400050	51.800251984713	0.002
14	400081	51.850251984713	0.001
14	400979	51.900251984713	0.002
14	401010	51.950251984713	0.001
14	401881	52.000251984713	0.002
14	401912	52.050251984713	0.001
14	402810	52.100251984713	0.002
14	402841	52.150251984713	0.001
14	403728	52.200251984713	0.002
14	403759	52.250251984713	0.001
14	404657	52.300251984713	0.002
14	404688	52.350251984713	0.001
14	405597	52.400251984713	0.002
14	405628	52.450251984713	0.001
14	406494	52.500251984713	0.002
14	406525	52.550251984713	0.001
14	407418	52.600251984713	0.002
14	407449	52.650251984713	0.001
14	408336	52.700251984713	0.002
14	408367	52.750251984713	0.001
14	409238	52.800251984713	0.002
14	409269	52.850251984713	0.001
14	410162	52.900251984713	0.002
14	410193	52.950251984713	0.001
14	411080	53.000251984713	0.002
14	411111	53.050251984713	0.001
14	411977	53.100251984713	0.002
14	412008	53.150251984713	0.001
14	412901	53.200251984713	0.002
14	412932	53.250251984713	0.001
14	413798	53.300251984713	0.002
14	413829	53.350251984713	0.001
14	414679	53.400251984713	0.002
14	414710	53.450251984713	0.001
14	415586	53.500251984713	0.002
14	415617	53.550251984713	0.001
14	416499	53.600251984713	0.002
14	416530	53.650251984713	0.001
14	417423	53.700251984713	0.002
14	417454	53.750251984713	0.001
14	418325	53.800251984713	0.002
14	418356	53.850251984713	0.001
14	419233	53.900251984713	0.002
14	419264	53.950251984713	0.001
14	420151	54.000251984713	0.002
14	420182	54.050251984713	0.001
14	421047	54.100251984713	0.002
14	421078	54.150251984713	0.001
14	421949	54.200251984713	0.002
14	421980	54.250251984713	0.001
14	422851	54.300251984713	0.002
14	422882	54.350251984713	0.001
14	423764	54.400251984713	0.002
14	423795	54.450251984713	0.001
14	424682	54.500251984713	0.002
14	424713	54.550251984713	0.001
14	425590	54.600251984713	0.002
14	425621	54.650251984713	0.001
14	426487	54.700251984713	0.002
14	426518	54.750251984713	0.001
14	427400	54.800251984713	0.002
14	427431	54.850251984713	0.001
14	428324	54.900251984713	0.002
14	428355	54.950251984713	0.001
14	429232	55.000251984713	0.002
14	429263	55.050251984713	0.001
14	430145	55.100251984713	0.002
14	430176	55.150251984713	0.001
14	431074	55.200251984713	0.002
14	431105	55.250251984713	0.001
14	431982	55.300251984713	0.002
14	432013	55.350251984713	0.001
14	432922	55.400251984713	0.002
14	432953	55.450251984713	0.001
14	433846	55.500251984713	0.002
14	433877	55.550251984713	0.001
14	434759	55.600251984713	0.002
14	434790	55.650251984713	0.001
14	435677	55.700251984713	0.002
14	435708	55.750251984713	0.001
14	436617	55.800251984713	0.002
14	436648	55.850251984713	0.001
14	437530	55.900251984713	0.002
14	437561	55.950251984713	0.001
14	438443	56.000251984713	0.002
14	438474	56.050251984713	0.001
14	439366	56.100251984713	0.002
14	439397	56.150251984713	0.001
14	440311	56.200251984713	0.002
14	440342	56.250251984713	0.001
14	441213	56.300251984713	0.002
14	441244	56.350251984713	0.001
14	442131	56.400251984713	0.002
14	442162	56.450251984713	0.001
14	443071	56.500251984713	0.002
14	443102	56.550251984713	0.001
14	444000	56.600251984713	0.002
14	444031	56.650251984713	0.001
14	444913	56.700251984713	0.002
14	444944	56.750251984713	0.001
14	445826	56.800251984713	0.002
14	445857	56.850251984713	0.001
14	446744	56.900251984713	0.002
14	446775	56.950251984713	0.001
14	447673	57.000251984713	0.002
14	447704	57.050251984713	0.001
14	448607	57.100251984713	0.002
14	448638	57.150251984713	0.001
14	449509	57.200251984713	0.002
14	449540	57.250251984713	0.001
14	450400	57.300251984713	0.002
14	450431	57.350251984713	0.001
14	451323	57.400251984713	0.002
14	451354	57.450251984713	0.001
14	452230	57.500251984713	0.002
14	452261	57.550251984713	0.001
14	453127	57.600251984713	0.002
14	453158	57.650251984713	0.001
14	454056	57.700251984713	0.002
14	454087	57.750251984713	0.001
14	454963	57.800251984713	0.002
14	454994	57.850251984713	0.001
14	455886	57.900251984713	0.002
14	455917	57.950251984713	0.001
14	456788	58.000251984713	0.002
14	456819	58.050251984713	0.001
14	457701	58.100251984713	0.002
14	457732	58.150251984713	0.001
14	458630	58.200251984713	0.002
14	458661	58.250251984713	0.001
14	459543	58.300251984713	0.002
14	459574	58.350251984713	0.001
14	460440	58.400251984713	0.002
14	460471	58.450251984713	0.001
14	461369	58.500251984713	0.002
14	461400	58.550251984713	0.001
14	462282	58.600251984713	0.002
14	462313	58.650251984713	0.001
14	463184	58.700251984713	0.002
14	463215	58.750251984713	0.001
14	464113	58.800251984713	0.002
14	464144	58.850251984713	0.001
14	465036	58.900251984713	0.002
14	465067	58.950251984713	0.001
14	465970	59.000251984713	0.002
14	466001	59.050251984713	0.001
14	466861	59.100251984713	0.002
14	466892	59.150251984713	0.001
14	467779	59.200251984713	0.002
14	467810	59.250251984713	0.001
14	468692	59.300251984713	0.002
14	468723	59.350251984713	0.001
14	469605	59.400251984713	0.002
14	469636	59.450251984713	0.001
14	470534	59.500251984713	0.002
14	470565	59.550251984713	0.001
14	471463	59.600251984713	0.002
14	471494	59.650251984713	0.001
14	472381	59.700251984713	0.002
14	472412	59.750251984713	0.001
14	473321	59.800251984713	0.002
14	473352	59.850251984713	0.001
14	474223	59.900251984713	0.002
14	474254	59.950251984713	0.001
14	475125	60.000251984713	0.002
14	475156	60.050251984713	0.001
14	476038	60.100251984713	0.002
14	476069	60.150251984713	0.001
14	476967	60.200251984713	0.002
14	476998	60.250251984713	0.001
14	477896	60.300251984713	0.002
14	477927	60.350251984713	0.001
14	478809	60.400251984713	0.002
14	478840	60.450251984713	0.001
14	479743	60.500251984713	0.002
14	479774	60.550251984713	0.001
14	480645	60.600251984713	0.002
14	480676	60.650251984713	0.001
14	481558	60.700251984713	0.002
14	481589	60.750251984713	0.001
14	482482	60.800251984713	0.002
14	482513	60.850251984713	0.001
14	483400	60.900251984713	0.002
14	483431	60.950251984713	0.001
14	484340	61.000251984713	0.002
14	484371	61.050251984713	0.001
14	485253	61.100251984713	0.002
14	485284	61.150251984713	0.001
14	486160	61.200251984713	0.002
14	486191	61.250251984713	0.001
14	487084	61.300251984713	0.002
14	487115	61.350251984713	0.001
14	488002	61.400251984713	0.002
14	488033	61.450251984713	0.001
14	488903	61.500251984713	0.002
14	488927	61.550251984713	0.001
14	489548	61.600251984713	0.002
14	489572	61.650251984713	0.001
14	490171	61.700251984713	0.002
14	490195	61.750251984713	0.001
14	490816	61.800251984713	0.002
14	490840	61.850251984713	0.001
14	491461	61.900251984713	0.002
14	491485	61.950251984713	0.001
14	492088	62.000251984713	0.002
14	492112	62.050251984713	0.001
14	492720	62.100251984713	0.002
14	492744	62.150251984713	0.001
14	493352	62.200251984713	0.002
14	493376	62.250251984713	0.001
14	493988	62.300251984713	0.002
14	494012	62.350251984713	0.001
14	494620	62.400251984713	0.002
14	494644	62.450251984713	0.001
14	495252	62.500251984713	0.002
14	495276	62.550251984713	0.001
14	495888	62.600251984713	0.002
14	495912	62.650251984713	0.001
14	496511	62.700251984713	0.002
14	496535	62.750251984713	0.001
14	497143	62.800251984713	0.002
14	497167	62.850251984713	0.001
14	497775	62.900251984713	0.002
14	497799	62.950251984713	0.001
14	498398	63.000251984713	0.002
14	498422	63.050251984713	0.001
14	499030	63.100251984713	0.002
14	499054	63.150251984713	0.001
14	499662	63.200251984713	0.002
14	499686	63.250251984713	0.001
14	500298	63.300251984713	0.002
14	500322	63.350251984713	0.001
14	500930	63.400251984713	0.002
14	500954	63.450251984713	0.001
14	501557	63.500251984713	0.002
14	501581	63.550251984713	0.001
14	502180	63.600251984713	0.002
14	502204	63.650251984713	0.001
14	502816	63.700251984713	0.002
14	502840	63.750251984713	0.001
14	503461	63.800251984713	0.002
14	503485	63.850251984713	0.001
14	504097	63.900251984713	0.002
14	504121	63.950251984713	0.001
14	504733	64.000251984713	0.002
14	504757	64.050251984713	0.001
14	505369	64.100251984713	0.002
14	505393	64.150251984713	0.001
14	506005	64.200251984713	0.002
14	506029	64.250251984713	0.001
14	506624	64.300251984713	0.002
14	506648	64.350251984713	0.001
14	507260	64.400251984713	0.002
14	507284	64.450251984713	0.001
14	507892	64.500251984713	0.002
14	507916	64.550251984713	0.001
14	508550	64.600251984713	0.002
14	508574	64.650251984713	0.001
14	509185	64.700251984713	0.002
14	509204	64.750251984713	0.001
14	509589	64.800251984713	0.002
14	509608	64.850251984713	0.001
14	509966	64.900251984713	0.002
14	509985	64.950251984713	0.001
14	510353	65.000251984713	0.002
14	510372	65.050251984713	0.001
14	510750	65.100251984713	0.002
14	510769	65.150251984713	0.001
14	511144	65.200251984713	0.002
14	511163	65.250251984713	0.001
14	511538	65.300251984713	0.002
14	511557	65.350251984713	0.001
14	511932	65.400251984713	0.002
14	511951	65.450251984713	0.001
14	512336	65.500251984713	0.002
14	512355	65.550251984713	0.001
14	512740	65.600251984713	0.002
14	512759	65.650251984713	0.001
14	513127	65.700251984713	0.002
14	513146	65.750251984713	0.001
14	513514	65.800251984713	0.002
14	513533	65.850251984713	0.001
14	513918	65.900251984713	0.002
14	513937	65.950251984713	0.001
14	514322	66.000251984713	0.002
14	514341	66.050251984713	0.001
14	514709	66.100251984713	0.002
14	514728	66.150251984713	0.001
14	515113	66.200251984713	0.002
14	515132	66.250251984713	0.001
14	515507	66.300251984713	0.002
14	515526	66.350251984713	0.001
14	515904	66.400251984713	0.002
14	515923	66.450251984713	0.001
14	516298	66.500251984713	0.002
14	516317	66.550251984713	0.001
14	516692	66.600251984713	0.002
14	516711	66.650251984713	0.001
14	517086	66.700251984713	0.002
14	517105	66.750251984713	0.001
14	517483	66.800251984713	0.002
14	517502	66.850251984713	0.001
14	517870	66.900251984713	0.002
14	517889	66.950251984713	0.001
14	518264	67.000251984713	0.002
14	518283	67.050251984713	0.001
14	518678	67.100251984713	0.002
14	518697	67.150251984713	0.001
14	519062	67.200251984713	0.002
14	519081	67.250251984713	0.001
14	519466	67.300251984713	0.002
14	519485	67.350251984713	0.001
14	519853	67.400251984713	0.002
14	519872	67.450251984713	0.001
14	520240	67.500251984713	0.002
14	520259	67.550251984713	0.001
14	520627	67.600251984713	0.002
14	520640	67.650251984713	0.001
14	520837	67.700251984713	0.002
14	520850	67.750251984713	0.001
14	521047	67.800251984713	0.002
14	521060	67.850251984713	0.001
14	521257	67.900251984713	0.002
14	521270	67.950251984713	0.001
14	521467	68.000251984713	0.002
14	521480	68.050251984713	0.001
14	521684	68.100251984713	0.002
14	521697	68.150251984713	0.001
14	521901	68.200251984713	0.002
14	521914	68.250251984713	0.001
14	522104	68.300251984713	0.002
14	522117	68.350251984713	0.001
14	522321	68.400251984713	0.002
14	522334	68.450251984713	0.001
14	522524	68.500251984713	0.002
14	522537	68.550251984713	0.001
14	522741	68.600251984713	0.002
14	522754	68.650251984713	0.001
14	522958	68.700251984713	0.002
14	522971	68.750251984713	0.001
14	523175	68.800251984713	0.002
14	523188	68.850251984713	0.001
14	523385	68.900251984713	0.002
14	523398	68.950251984713	0.001
14	523595	69.000251984713	0.002
14	523608	69.050251984713	0.001
14	523812	69.100251984713	0.002
14	523825	69.150251984713	0.001
14	524022	69.200251984713	0.002
14	524035	69.250251984713	0.001
14	524225	69.300251984713	0.002
14	524238	69.350251984713	0.001
14	524442	69.400251984713	0.002
14	524455	69.450251984713	0.001
14	524659	69.500251984713	0.002
14	524672	69.550251984713	0.001
14	524876	69.600251984713	0.002
14	524889	69.650251984713	0.001
14	525086	69.700251984713	0.002
14	525099	69.750251984713	0.001
14	525303	69.800251984713	0.002
14	525316	69.850251984713	0.001
14	525513	69.900251984713	0.002
14	525526	69.950251984713	0.001
14	525730	70.000251984713	0.002
14	525743	70.050251984713	0.001
14	525947	70.100251984713	0.002
14	525960	70.150251984713	0.001
14	526164	70.200251984713	0.002
14	526177	70.250251984713	0.001
14	526381	70.300251984713	0.002
14	526394	70.350251984713	0.001
14	526598	70.400251984713	0.002
14	526611	70.450251984713	0.001
14	526815	70.500251984713	0.002
14	526828	70.550251984713	0.001
14	527032	70.600251984713	0.002
14	527045	70.650251984713	0.001
14	527241	70.700251984713	0.002
14	527248	70.750251984713	0.001
14	527321	70.800251984713	0.002
14	527328	70.850251984713	0.001
14	527401	70.900251984713	0.002
14	527408	70.950251984713	0.001
14	527481	71.000251984713	0.002
14	527488	71.050251984713	0.001
14	527561	71.100251984713	0.002
14	527568	71.150251984713	0.001
14	527641	71.200251984713	0.002
14	527648	71.250251984713	0.001
14	527721	71.300251984713	0.002
14	527728	71.350251984713	0.001
14	527801	71.400251984713	0.002
14	527808	71.450251984713	0.001
14	527881	71.500251984713	0.002
14	527888	71.550251984713	0.001
14	527961	71.600251984713	0.002
14	527968	71.650251984713	0.001
14	528041	71.700251984713	0.002
14	528048	71.750251984713	0.001
14	528121	71.800251984713	0.002
14	528128	71.850251984713	0.001
14	528201	71.900251984713	0.002
14	528208	71.950251984713	0.001
14	528281	72.000251984713	0.002
14	528288	72.050251984713	0.001
14	528361	72.100251984713	0.002
14	528368	72.150251984713	0.001
14	528441	72.200251984713	0.002
14	528448	72.250251984713	0.001
14	528521	72.300251984713	0.002
14	528528	72.350251984713	0.001
14	528601	72.400251984713	0.002
14	528608	72.450251984713	0.001
14	528681	72.500251984713	0.002
14	528688	72.550251984713	0.001
14	528761	72.600251984713	0.002
14	528768	72.650251984713	0.001
14	528841	72.700251984713	0.002
14	528848	72.750251984713	0.001
14	528921	72.800251984713	0.002
14	528928	72.850251984713	0.001
14	529001	72.900251984713	0.002
14	529008	72.950251984713	0.001
14	529081	73.000251984713	0.002
14	529088	73.050251984713	0.001
14	529161	73.100251984713	0.002
14	529168	73.150251984713	0.001
14	529241	73.200251984713	0.002
14	529248	73.250251984713	0.001
14	529321	73.300251984713	0.002
14	529328	73.350251984713	0.001
14	529401	73.400251984713	0.002
14	529408	73.450251984713	0.001
14	529481	73.500251984713	0.002
14	529488	73.550251984713	0.001
14	529561	73.600251984713	0.002
14	529568	73.650251984713	0.001
14	529641	73.700251984713	0.002
14	529642	73.750251984713	0.001
14	529643	73.800251984713	0.002
14	529644	73.850251984713	0.001
14	529645	73.900251984713	0.002
14	529646	73.950251984713	0.001
14	529647	74.000251984713	0.002
14	529648	74.050251984713	0.001
14	529649	74.100251984713	0.002
14	529650	74.150251984713	0.001
14	529651	74.200251984713	0.002
14	529652	74.250251984713	0.001
14	529653	74.300251984713	0.002
14	529654	74.350251984713	0.001
14	529655	74.400251984713	0.002
14	529656	74.450251984713	0.001
14	529657	74.500251984713	0.002
14	529658	74.550251984713	0.001
14	529659	74.600251984713	0.002
14	529660	74.650251984713	0.001
14	529661	74.700251984713	0.002
14	529662	74.750251984713	0.001
14	529663	74.800251984713	0.002
14	529664	74.850251984713	0.001
14	529665	74.900251984713	0.002
14	529666	74.950251984713	0.001
14	529667	75.000251984713	0.002
14	529668	75.050251984713	0.001
14	529669	75.100251984713	0.002
14	529670	75.150251984713	0.001
14	529671	75.200251984713	0.002
14	529672	75.250251984713	0.001
14	529673	75.300251984713	0.002
14	529674	75.350251984713	0.001
14	529675	75.400251984713	0.002
14	529676	75.450251984713	0.001
14	529677	75.500251984713	0.002
14	529678	75.550251984713	0.001
14	529679	75.600251984713	0.002
14	529680	75.650251984713	0.001
14	529681	75.700251984713	0.002
14	529682	75.750251984713	0.001
14	529683	75.800251984713	0.002
14	529684	75.850251984713	0.001
14	529685	75.900251984713	0.002
14	529686	75.950251984713	0.001
