version 2
run VoIP-50ms_440B-9-20160923-14:17:25-14756
attr configname VoIP-50ms_440B
attr datetime 20160923-14:17:25
attr experiment VoIP-50ms_440B
attr inifile omnetpp.ini
attr iterationvars ""
attr iterationvars2 $repetition=9
attr measurement ""
attr network SymScenerio
attr processid 14756
attr repetition 9
attr replication #9
attr resultdir results
attr runnumber 9
attr seedset 9
param **.coreDebug false
param **.debug false
param *.**.nic.mac1609_4.bitrate 18Mbps
param *.**.nic.mac1609_4.txPower 20mW
param *.**.nic.mac1609_4.useServiceChannel true
param *.**.nic.phy80211p.analogueModels "xmldoc(\"config.xml\")"
param *.**.nic.phy80211p.decider "xmldoc(\"config.xml\")"
param *.**.nic.phy80211p.sensitivity -89dBm
param *.**.nic.phy80211p.thermalNoise -110dBm
param *.**.nic.phy80211p.usePropagationDelay true
param *.**.nic.phy80211p.useThermalNoise true
param *.annotations.draw false
param *.connectionManager.alpha 2.0
param *.connectionManager.carrierFrequency "5.890e9 Hz"
param *.connectionManager.pMax 20mW
param *.connectionManager.sat -89dBm
param *.connectionManager.sendDirect true
param *.manager.autoShutdown true
param *.manager.host "\"localhost\""
param *.manager.launchConfig "xmldoc(\"map.launchd.xml\")"
param *.manager.margin 25
param *.manager.moduleDisplayString "\"\""
param *.manager.moduleName "\"node\""
param *.manager.moduleType "\"symulacja.veins.nodes.Car\""
param *.manager.port 9999
param *.manager.updateInterval 0.1s
param *.node[*].appl.beaconInterval 1s
param *.node[*].appl.beaconPriority 3
param *.node[*].appl.dataOnSch false
param *.node[*].appl.dataPriority 2
param *.node[*].appl.debug false
param *.node[*].appl.maxOffset 0.005s
param *.node[*].appl.sendBeacons false
param *.node[*].appl.sendData true
param *.node[*].appl.sendVoIP true
param *.node[*].appl.voipInterval 0.050s
param *.node[*].appl.voipLengthBits 3520bit
param *.node[*].appl.voipOnSch true
param *.node[*].appl.voipPriority 3
param *.node[*].applType "\"Sym11p\""
param *.node[*].veinsmobility.x 0
param *.node[*].veinsmobility.y 0
param *.node[*].veinsmobility.z 1.895
param *.node[*].veinsmobilityType "\"symulacja.veins.modules.mobility.traci.TraCIMobility\""
param *.playgroundSizeX 9000m
param *.playgroundSizeY 9000m
param *.playgroundSizeZ 50m
param *.rsu[*].appl.beaconInterval 1s
param *.rsu[*].appl.beaconPriority 3
param *.rsu[*].appl.dataOnSch false
param *.rsu[*].appl.dataPriority 2
param *.rsu[*].appl.debug false
param *.rsu[*].appl.headerLength "256 bit"
param *.rsu[*].appl.maxOffset 0.005s
param *.rsu[*].appl.sendBeacons false
param *.rsu[*].appl.sendData false
param *.rsu[*].appl.sendVoIP false
param *.rsu[*].applType "\"SymRSU11p\""
param *.rsu[0].mobility.x 2160
param *.rsu[0].mobility.y 3100
param *.rsu[0].mobility.z 3
param *.world.use2D false
param *.world.useTorus false

vector 14  SymScenerio.rsu[0].nic.mac1609_4  "Interwały kanałów"  ETV
vector 23  SymScenerio.node[0].veinsmobility  posx  ETV
vector 24  SymScenerio.node[0].veinsmobility  posy  ETV
vector 22  SymScenerio.node[0].nic.mac1609_4  "Interwały kanałów"  ETV
vector 25  SymScenerio.node[0].veinsmobility  speed  ETV
vector 15  SymScenerio.node[0].appl  "TX Packets"  ETV
vector 16  SymScenerio.node[0].appl  "TX Total"  ETV
vector 17  SymScenerio.node[0].appl  Pakietyzacja  ETV
vector 5  SymScenerio.rsu[0].appl  nodeALL:vector  ETV
attr source  nodeALL
attr title  "Opoznienia ALL, vector"
vector 9  SymScenerio.rsu[0].appl  "RX Packet"  ETV
vector 0  SymScenerio.rsu[0].appl  node0:vector  ETV
attr source  node0
attr title  "Opoznienia node0, vector"
vector 26  SymScenerio.node[0].veinsmobility  acceleration  ETV
vector 27  SymScenerio.node[0].veinsmobility  co2emission  ETV
vector 36  SymScenerio.node[1].veinsmobility  posx  ETV
vector 37  SymScenerio.node[1].veinsmobility  posy  ETV
vector 35  SymScenerio.node[1].nic.mac1609_4  "Interwały kanałów"  ETV
vector 38  SymScenerio.node[1].veinsmobility  speed  ETV
vector 39  SymScenerio.node[1].veinsmobility  acceleration  ETV
vector 40  SymScenerio.node[1].veinsmobility  co2emission  ETV
vector 28  SymScenerio.node[1].appl  "TX Packets"  ETV
vector 29  SymScenerio.node[1].appl  "TX Total"  ETV
vector 30  SymScenerio.node[1].appl  Pakietyzacja  ETV
vector 1  SymScenerio.rsu[0].appl  node1:vector  ETV
attr source  node1
attr title  "Opoznienia node1, vector"
vector 49  SymScenerio.node[2].veinsmobility  posx  ETV
vector 50  SymScenerio.node[2].veinsmobility  posy  ETV
vector 48  SymScenerio.node[2].nic.mac1609_4  "Interwały kanałów"  ETV
vector 41  SymScenerio.node[2].appl  "TX Packets"  ETV
vector 42  SymScenerio.node[2].appl  "TX Total"  ETV
vector 43  SymScenerio.node[2].appl  Pakietyzacja  ETV
vector 2  SymScenerio.rsu[0].appl  node2:vector  ETV
attr source  node2
attr title  "Opoznienia node2, vector"
vector 51  SymScenerio.node[2].veinsmobility  speed  ETV
vector 52  SymScenerio.node[2].veinsmobility  acceleration  ETV
vector 53  SymScenerio.node[2].veinsmobility  co2emission  ETV
vector 62  SymScenerio.node[3].veinsmobility  posx  ETV
vector 63  SymScenerio.node[3].veinsmobility  posy  ETV
vector 61  SymScenerio.node[3].nic.mac1609_4  "Interwały kanałów"  ETV
vector 64  SymScenerio.node[3].veinsmobility  speed  ETV
vector 65  SymScenerio.node[3].veinsmobility  acceleration  ETV
vector 66  SymScenerio.node[3].veinsmobility  co2emission  ETV
vector 54  SymScenerio.node[3].appl  "TX Packets"  ETV
vector 55  SymScenerio.node[3].appl  "TX Total"  ETV
vector 56  SymScenerio.node[3].appl  Pakietyzacja  ETV
vector 3  SymScenerio.rsu[0].appl  node3:vector  ETV
attr source  node3
attr title  "Opoznienia node3, vector"
vector 75  SymScenerio.node[4].veinsmobility  posx  ETV
vector 76  SymScenerio.node[4].veinsmobility  posy  ETV
vector 74  SymScenerio.node[4].nic.mac1609_4  "Interwały kanałów"  ETV
vector 77  SymScenerio.node[4].veinsmobility  speed  ETV
vector 78  SymScenerio.node[4].veinsmobility  acceleration  ETV
vector 79  SymScenerio.node[4].veinsmobility  co2emission  ETV
vector 67  SymScenerio.node[4].appl  "TX Packets"  ETV
vector 68  SymScenerio.node[4].appl  "TX Total"  ETV
vector 69  SymScenerio.node[4].appl  Pakietyzacja  ETV
vector 4  SymScenerio.rsu[0].appl  node4:vector  ETV
attr source  node4
attr title  "Opoznienia node4, vector"
17	12	0.271055546054	1.002
17	30	0.321055546054	1.002
17	47	0.371055546054	1.002
17	65	0.421055546054	1.002
17	82	0.471055546054	1.002
17	100	0.521055546054	1.002
17	117	0.571055546054	1.002
17	135	0.621055546054	1.002
17	152	0.671055546054	1.002
17	170	0.721055546054	1.002
17	187	0.771055546054	1.002
17	205	0.821055546054	1.002
17	222	0.871055546054	1.002
17	240	0.921055546054	1.002
17	257	0.971055546054	1.002
17	275	1.021055546054	1.002
17	292	1.071055546054	1.002
17	310	1.121055546054	1.002
17	327	1.171055546054	1.002
17	345	1.221055546054	1.002
17	362	1.271055546054	1.002
17	380	1.321055546054	1.002
17	397	1.371055546054	1.002
17	415	1.421055546054	1.002
17	432	1.471055546054	1.002
17	450	1.521055546054	1.002
17	467	1.571055546054	1.002
17	485	1.621055546054	1.002
17	502	1.671055546054	1.002
17	520	1.721055546054	1.002
17	537	1.771055546054	1.002
17	555	1.821055546054	1.002
17	572	1.871055546054	1.002
17	590	1.921055546054	1.002
17	607	1.971055546054	1.002
17	625	2.021055546054	1.002
17	642	2.071055546054	1.002
17	660	2.121055546054	1.002
17	677	2.171055546054	1.002
17	695	2.221055546054	1.002
17	712	2.271055546054	1.002
17	730	2.321055546054	1.002
17	747	2.371055546054	1.002
17	765	2.421055546054	1.002
17	782	2.471055546054	1.002
17	800	2.521055546054	1.002
17	817	2.571055546054	1.002
17	835	2.621055546054	1.002
17	852	2.671055546054	1.002
17	870	2.721055546054	1.002
17	887	2.771055546054	1.002
17	905	2.821055546054	1.002
17	922	2.871055546054	1.002
17	940	2.921055546054	1.002
17	957	2.971055546054	1.002
17	975	3.021055546054	1.002
17	992	3.071055546054	1.002
17	1010	3.121055546054	1.002
17	1034	3.171055546054	1.002
17	1059	3.221055546054	1.002
17	1083	3.271055546054	1.002
17	1108	3.321055546054	1.002
17	1132	3.371055546054	1.002
17	1157	3.421055546054	1.002
17	1181	3.471055546054	1.002
17	1206	3.521055546054	1.002
17	1230	3.571055546054	1.002
17	1276	3.621055546054	1.002
17	1321	3.671055546054	1.002
17	1367	3.721055546054	1.002
17	1412	3.771055546054	1.002
17	1458	3.821055546054	1.002
17	1503	3.871055546054	1.002
17	1549	3.921055546054	1.002
17	1594	3.971055546054	1.002
17	1640	4.021055546054	1.002
17	1685	4.071055546054	1.002
17	1731	4.121055546054	1.002
17	1776	4.171055546054	1.002
17	1822	4.221055546054	1.002
17	1867	4.271055546054	1.002
17	1913	4.321055546054	1.002
17	1958	4.371055546054	1.002
17	2004	4.421055546054	1.002
17	2049	4.471055546054	1.002
17	2095	4.521055546054	1.002
17	2140	4.571055546054	1.002
17	2186	4.621055546054	1.002
17	2231	4.671055546054	1.002
17	2277	4.721055546054	1.002
17	2322	4.771055546054	1.002
17	2368	4.821055546054	1.002
17	2413	4.871055546054	1.002
17	2459	4.921055546054	1.002
17	2504	4.971055546054	1.002
17	2550	5.021055546054	1.002
17	2595	5.071055546054	1.002
17	2641	5.121055546054	1.002
17	2686	5.171055546054	1.002
17	2732	5.221055546054	1.002
17	2777	5.271055546054	1.002
17	2823	5.321055546054	1.002
17	2868	5.371055546054	1.002
17	2914	5.421055546054	1.002
17	2959	5.471055546054	1.002
17	3005	5.521055546054	1.002
17	3050	5.571055546054	1.002
17	3096	5.621055546054	1.002
17	3141	5.671055546054	1.002
17	3187	5.721055546054	1.002
17	3232	5.771055546054	1.002
17	3278	5.821055546054	1.002
17	3323	5.871055546054	1.002
17	3369	5.921055546054	1.002
17	3414	5.971055546054	1.002
17	3460	6.021055546054	1.002
17	3505	6.071055546054	1.002
17	3551	6.121055546054	1.002
17	3636	6.171055546054	1.002
17	3697	6.221055546054	1.002
17	3797	6.271055546054	1.002
17	3858	6.321055546054	1.002
17	3968	6.371055546054	1.002
17	4029	6.421055546054	1.002
17	4139	6.471055546054	1.002
17	4200	6.521055546054	1.002
17	4310	6.571055546054	1.002
17	4371	6.621055546054	1.002
17	4481	6.671055546054	1.002
17	4542	6.721055546054	1.002
17	4652	6.771055546054	1.002
17	4713	6.821055546054	1.002
17	4823	6.871055546054	1.002
17	4884	6.921055546054	1.002
17	4994	6.971055546054	1.002
17	5055	7.021055546054	1.002
17	5165	7.071055546054	1.002
17	5226	7.121055546054	1.002
17	5336	7.171055546054	1.002
17	5397	7.221055546054	1.002
17	5497	7.271055546054	1.002
17	5558	7.321055546054	1.002
17	5668	7.371055546054	1.002
17	5729	7.421055546054	1.002
17	5839	7.471055546054	1.002
17	5900	7.521055546054	1.002
17	6000	7.571055546054	1.002
17	6061	7.621055546054	1.002
17	6171	7.671055546054	1.002
17	6232	7.721055546054	1.002
17	6342	7.771055546054	1.002
17	6403	7.821055546054	1.002
17	6503	7.871055546054	1.002
17	6564	7.921055546054	1.002
17	6674	7.971055546054	1.002
17	6735	8.021055546054	1.002
17	6835	8.071055546054	1.002
17	6896	8.121055546054	1.002
17	7006	8.171055546054	1.002
17	7067	8.221055546054	1.002
17	7167	8.271055546054	1.002
17	7228	8.321055546054	1.002
17	7328	8.371055546054	1.002
17	7389	8.421055546054	1.002
17	7499	8.471055546054	1.002
17	7560	8.521055546054	1.002
17	7660	8.571055546054	1.002
17	7721	8.621055546054	1.002
17	7831	8.671055546054	1.002
17	7892	8.721055546054	1.002
17	8002	8.771055546054	1.002
17	8063	8.821055546054	1.002
17	8173	8.871055546054	1.002
17	8234	8.921055546054	1.002
17	8344	8.971055546054	1.002
17	8405	9.021055546054	1.002
17	8515	9.071055546054	1.002
17	8576	9.121055546054	1.002
17	8711	9.171055546054	1.002
17	8785	9.221055546054	1.002
17	8920	9.271055546054	1.002
17	8994	9.321055546054	1.002
17	9129	9.371055546054	1.002
17	9236	9.421055546054	1.002
17	9391	9.471055546054	1.002
17	9498	9.521055546054	1.002
17	9654	9.571055546054	1.002
17	9761	9.621055546054	1.002
17	9916	9.671055546054	1.002
17	10023	9.721055546054	1.002
17	10178	9.771055546054	1.002
17	10285	9.821055546054	1.002
17	10453	9.871055546054	1.002
17	10560	9.921055546054	1.002
17	10715	9.971055546054	1.002
17	10822	10.021055546054	1.002
17	10977	10.071055546054	1.002
17	11084	10.121055546054	1.002
17	11239	10.171055546054	1.002
17	11346	10.221055546054	1.002
17	11501	10.271055546054	1.002
17	11608	10.321055546054	1.002
17	11763	10.371055546054	1.002
17	11870	10.421055546054	1.002
17	12025	10.471055546054	1.002
17	12132	10.521055546054	1.002
17	12287	10.571055546054	1.002
17	12394	10.621055546054	1.002
17	12549	10.671055546054	1.002
17	12656	10.721055546054	1.002
17	12811	10.771055546054	1.002
17	12918	10.821055546054	1.002
17	13086	10.871055546054	1.002
17	13193	10.921055546054	1.002
17	13348	10.971055546054	1.002
17	13455	11.021055546054	1.002
17	13610	11.071055546054	1.002
17	13717	11.121055546054	1.002
17	13885	11.171055546054	1.002
17	13992	11.221055546054	1.002
17	14147	11.271055546054	1.002
17	14254	11.321055546054	1.002
17	14409	11.371055546054	1.002
17	14516	11.421055546054	1.002
17	14684	11.471055546054	1.002
17	14791	11.521055546054	1.002
17	14946	11.571055546054	1.002
17	15053	11.621055546054	1.002
17	15208	11.671055546054	1.002
17	15315	11.721055546054	1.002
17	15470	11.771055546054	1.002
17	15577	11.821055546054	1.002
17	15745	11.871055546054	1.002
17	15852	11.921055546054	1.002
17	16020	11.971055546054	1.002
17	16127	12.021055546054	1.002
17	16295	12.071055546054	1.002
17	16402	12.121055546054	1.002
17	16585	12.171055546054	1.002
17	16711	12.221055546054	1.002
17	16894	12.271055546054	1.002
17	17020	12.321055546054	1.002
17	17203	12.371055546054	1.002
17	17329	12.421055546054	1.002
17	17528	12.471055546054	1.002
17	17654	12.521055546054	1.002
17	17837	12.571055546054	1.002
17	17963	12.621055546054	1.002
17	18146	12.671055546054	1.002
17	18272	12.721055546054	1.002
17	18455	12.771055546054	1.002
17	18581	12.821055546054	1.002
17	18764	12.871055546054	1.002
17	18890	12.921055546054	1.002
17	19073	12.971055546054	1.002
17	19199	13.021055546054	1.002
17	19437	13.071055546054	1.002
17	19565	13.121055546054	1.002
17	19824	13.171055546054	1.002
17	19952	13.221055546054	1.002
17	20200	13.271055546054	1.002
17	20328	13.321055546054	1.002
17	20587	13.371055546054	1.002
17	20715	13.421055546054	1.002
17	20974	13.471055546054	1.002
17	21102	13.521055546054	1.002
17	21350	13.571055546054	1.002
17	21478	13.621055546054	1.002
17	21737	13.671055546054	1.002
17	21865	13.721055546054	1.002
17	22125	13.771055546054	1.002
17	22253	13.821055546054	1.002
17	22512	13.871055546054	1.002
17	22640	13.921055546054	1.002
17	22888	13.971055546054	1.002
17	23016	14.021055546054	1.002
17	23291	14.071055546054	1.002
17	23419	14.121055546054	1.002
17	23678	14.171055546054	1.002
17	23806	14.221055546054	1.002
17	24054	14.271055546054	1.002
17	24182	14.321055546054	1.002
17	24441	14.371055546054	1.002
17	24569	14.421055546054	1.002
17	24812	14.471055546054	1.002
17	24940	14.521055546054	1.002
17	25199	14.571055546054	1.002
17	25327	14.621055546054	1.002
17	25575	14.671055546054	1.002
17	25703	14.721055546054	1.002
17	25962	14.771055546054	1.002
17	26090	14.821055546054	1.002
17	26349	14.871055546054	1.002
17	26477	14.921055546054	1.002
17	26736	14.971055546054	1.002
17	26864	15.021055546054	1.002
17	27123	15.071055546054	1.002
17	27251	15.121055546054	1.002
17	27510	15.171055546054	1.002
17	27638	15.221055546054	1.002
17	27897	15.271055546054	1.002
17	28025	15.321055546054	1.002
17	28300	15.371055546054	1.002
17	28428	15.421055546054	1.002
17	28676	15.471055546054	1.002
17	28804	15.521055546054	1.002
17	29063	15.571055546054	1.002
17	29191	15.621055546054	1.002
17	29450	15.671055546054	1.002
17	29578	15.721055546054	1.002
17	29837	15.771055546054	1.002
17	29965	15.821055546054	1.002
17	30224	15.871055546054	1.002
17	30352	15.921055546054	1.002
17	30600	15.971055546054	1.002
17	30728	16.021055546054	1.002
17	30987	16.071055546054	1.002
17	31115	16.121055546054	1.002
17	31374	16.171055546054	1.002
17	31502	16.221055546054	1.002
17	31761	16.271055546054	1.002
17	31889	16.321055546054	1.002
17	32132	16.371055546054	1.002
17	32260	16.421055546054	1.002
17	32519	16.471055546054	1.002
17	32647	16.521055546054	1.002
17	32906	16.571055546054	1.002
17	33034	16.621055546054	1.002
17	33271	16.671055546054	1.002
17	33399	16.721055546054	1.002
17	33658	16.771055546054	1.002
17	33786	16.821055546054	1.002
17	34045	16.871055546054	1.002
17	34173	16.921055546054	1.002
17	34421	16.971055546054	1.002
17	34549	17.021055546054	1.002
17	34786	17.071055546054	1.002
17	34914	17.121055546054	1.002
17	35173	17.171055546054	1.002
17	35301	17.221055546054	1.002
17	35560	17.271055546054	1.002
17	35688	17.321055546054	1.002
17	35936	17.371055546054	1.002
17	36064	17.421055546054	1.002
17	36307	17.471055546054	1.002
17	36435	17.521055546054	1.002
17	36678	17.571055546054	1.002
17	36806	17.621055546054	1.002
17	37081	17.671055546054	1.002
17	37209	17.721055546054	1.002
17	37484	17.771055546054	1.002
17	37612	17.821055546054	1.002
17	37871	17.871055546054	1.002
17	37999	17.921055546054	1.002
17	38247	17.971055546054	1.002
17	38375	18.021055546054	1.002
17	38650	18.071055546054	1.002
17	38778	18.121055546054	1.002
17	39037	18.171055546054	1.002
17	39165	18.221055546054	1.002
17	39408	18.271055546054	1.002
17	39536	18.321055546054	1.002
17	39795	18.371055546054	1.002
17	39923	18.421055546054	1.002
17	40182	18.471055546054	1.002
17	40310	18.521055546054	1.002
17	40569	18.571055546054	1.002
17	40697	18.621055546054	1.002
17	40956	18.671055546054	1.002
17	41084	18.721055546054	1.002
17	41321	18.771055546054	1.002
17	41449	18.821055546054	1.002
17	41708	18.871055546054	1.002
17	41836	18.921055546054	1.002
17	42084	18.971055546054	1.002
17	42212	19.021055546054	1.002
17	42487	19.071055546054	1.002
17	42615	19.121055546054	1.002
17	42874	19.171055546054	1.002
17	43002	19.221055546054	1.002
17	43261	19.271055546054	1.002
17	43389	19.321055546054	1.002
17	43648	19.371055546054	1.002
17	43776	19.421055546054	1.002
17	44035	19.471055546054	1.002
17	44163	19.521055546054	1.002
17	44422	19.571055546054	1.002
17	44550	19.621055546054	1.002
17	44825	19.671055546054	1.002
17	44953	19.721055546054	1.002
17	45212	19.771055546054	1.002
17	45340	19.821055546054	1.002
17	45599	19.871055546054	1.002
17	45727	19.921055546054	1.002
17	45970	19.971055546054	1.002
17	46098	20.021055546054	1.002
17	46346	20.071055546054	1.002
17	46474	20.121055546054	1.002
17	46722	20.171055546054	1.002
17	46850	20.221055546054	1.002
17	47109	20.271055546054	1.002
17	47237	20.321055546054	1.002
17	47485	20.371055546054	1.002
17	47613	20.421055546054	1.002
17	47872	20.471055546054	1.002
17	48000	20.521055546054	1.002
17	48248	20.571055546054	1.002
17	48376	20.621055546054	1.002
17	48635	20.671055546054	1.002
17	48763	20.721055546054	1.002
17	49011	20.771055546054	1.002
17	49139	20.821055546054	1.002
17	49387	20.871055546054	1.002
17	49515	20.921055546054	1.002
17	49758	20.971055546054	1.002
17	49886	21.021055546054	1.002
17	50145	21.071055546054	1.002
17	50273	21.121055546054	1.002
17	50516	21.171055546054	1.002
17	50644	21.221055546054	1.002
17	50887	21.271055546054	1.002
17	51015	21.321055546054	1.002
17	51290	21.371055546054	1.002
17	51418	21.421055546054	1.002
17	51677	21.471055546054	1.002
17	51805	21.521055546054	1.002
17	52064	21.571055546054	1.002
17	52192	21.621055546054	1.002
17	52451	21.671055546054	1.002
17	52579	21.721055546054	1.002
17	52854	21.771055546054	1.002
17	52982	21.821055546054	1.002
17	53241	21.871055546054	1.002
17	53369	21.921055546054	1.002
17	53628	21.971055546054	1.002
17	53756	22.021055546054	1.002
17	53999	22.071055546054	1.002
17	54127	22.121055546054	1.002
17	54386	22.171055546054	1.002
17	54514	22.221055546054	1.002
17	54751	22.271055546054	1.002
17	54879	22.321055546054	1.002
17	55122	22.371055546054	1.002
17	55250	22.421055546054	1.002
17	55493	22.471055546054	1.002
17	55621	22.521055546054	1.002
17	55869	22.571055546054	1.002
17	55997	22.621055546054	1.002
17	56245	22.671055546054	1.002
17	56373	22.721055546054	1.002
17	56648	22.771055546054	1.002
17	56776	22.821055546054	1.002
17	57035	22.871055546054	1.002
17	57163	22.921055546054	1.002
17	57422	22.971055546054	1.002
17	57550	23.021055546054	1.002
17	57809	23.071055546054	1.002
17	57937	23.121055546054	1.002
17	58196	23.171055546054	1.002
17	58324	23.221055546054	1.002
17	58567	23.271055546054	1.002
17	58695	23.321055546054	1.002
17	58954	23.371055546054	1.002
17	59082	23.421055546054	1.002
17	59341	23.471055546054	1.002
17	59469	23.521055546054	1.002
17	59744	23.571055546054	1.002
17	59872	23.621055546054	1.002
17	60115	23.671055546054	1.002
17	60243	23.721055546054	1.002
17	60502	23.771055546054	1.002
17	60630	23.821055546054	1.002
17	60889	23.871055546054	1.002
17	61017	23.921055546054	1.002
17	61276	23.971055546054	1.002
17	61404	24.021055546054	1.002
17	61652	24.071055546054	1.002
17	61780	24.121055546054	1.002
17	62028	24.171055546054	1.002
17	62156	24.221055546054	1.002
17	62415	24.271055546054	1.002
17	62543	24.321055546054	1.002
17	62791	24.371055546054	1.002
17	62919	24.421055546054	1.002
17	63178	24.471055546054	1.002
17	63306	24.521055546054	1.002
17	63565	24.571055546054	1.002
17	63693	24.621055546054	1.002
17	63968	24.671055546054	1.002
17	64096	24.721055546054	1.002
17	64355	24.771055546054	1.002
17	64483	24.821055546054	1.002
17	64742	24.871055546054	1.002
17	64870	24.921055546054	1.002
17	65113	24.971055546054	1.002
17	65241	25.021055546054	1.002
17	65500	25.071055546054	1.002
17	65628	25.121055546054	1.002
17	65871	25.171055546054	1.002
17	65999	25.221055546054	1.002
17	66258	25.271055546054	1.002
17	66386	25.321055546054	1.002
17	66645	25.371055546054	1.002
17	66773	25.421055546054	1.002
17	67032	25.471055546054	1.002
17	67160	25.521055546054	1.002
17	67419	25.571055546054	1.002
17	67547	25.621055546054	1.002
17	67806	25.671055546054	1.002
17	67934	25.721055546054	1.002
17	68177	25.771055546054	1.002
17	68305	25.821055546054	1.002
17	68564	25.871055546054	1.002
17	68692	25.921055546054	1.002
17	68951	25.971055546054	1.002
17	69079	26.021055546054	1.002
17	69322	26.071055546054	1.002
17	69450	26.121055546054	1.002
17	69709	26.171055546054	1.002
17	69837	26.221055546054	1.002
17	70080	26.271055546054	1.002
17	70208	26.321055546054	1.002
17	70467	26.371055546054	1.002
17	70595	26.421055546054	1.002
17	70838	26.471055546054	1.002
17	70966	26.521055546054	1.002
17	71225	26.571055546054	1.002
17	71353	26.621055546054	1.002
17	71628	26.671055546054	1.002
17	71756	26.721055546054	1.002
17	72015	26.771055546054	1.002
17	72143	26.821055546054	1.002
17	72391	26.871055546054	1.002
17	72519	26.921055546054	1.002
17	72767	26.971055546054	1.002
17	72895	27.021055546054	1.002
17	73154	27.071055546054	1.002
17	73282	27.121055546054	1.002
17	73541	27.171055546054	1.002
17	73669	27.221055546054	1.002
17	73928	27.271055546054	1.002
17	74056	27.321055546054	1.002
17	74315	27.371055546054	1.002
17	74443	27.421055546054	1.002
17	74718	27.471055546054	1.002
17	74846	27.521055546054	1.002
17	75094	27.571055546054	1.002
17	75222	27.621055546054	1.002
17	75481	27.671055546054	1.002
17	75609	27.721055546054	1.002
17	75868	27.771055546054	1.002
17	75996	27.821055546054	1.002
17	76271	27.871055546054	1.002
17	76399	27.921055546054	1.002
17	76658	27.971055546054	1.002
17	76786	28.021055546054	1.002
17	77061	28.071055546054	1.002
17	77189	28.121055546054	1.002
17	77437	28.171055546054	1.002
17	77565	28.221055546054	1.002
17	77840	28.271055546054	1.002
17	77968	28.321055546054	1.002
17	78227	28.371055546054	1.002
17	78355	28.421055546054	1.002
17	78614	28.471055546054	1.002
17	78742	28.521055546054	1.002
17	79001	28.571055546054	1.002
17	79129	28.621055546054	1.002
17	79388	28.671055546054	1.002
17	79516	28.721055546054	1.002
17	79791	28.771055546054	1.002
17	79919	28.821055546054	1.002
17	80167	28.871055546054	1.002
17	80295	28.921055546054	1.002
17	80554	28.971055546054	1.002
17	80682	29.021055546054	1.002
17	80941	29.071055546054	1.002
17	81069	29.121055546054	1.002
17	81312	29.171055546054	1.002
17	81440	29.221055546054	1.002
17	81699	29.271055546054	1.002
17	81827	29.321055546054	1.002
17	82070	29.371055546054	1.002
17	82198	29.421055546054	1.002
17	82457	29.471055546054	1.002
17	82585	29.521055546054	1.002
17	82844	29.571055546054	1.002
17	82972	29.621055546054	1.002
17	83215	29.671055546054	1.002
17	83343	29.721055546054	1.002
17	83602	29.771055546054	1.002
17	83730	29.821055546054	1.002
17	83989	29.871055546054	1.002
17	84117	29.921055546054	1.002
17	84360	29.971055546054	1.002
17	84488	30.021055546054	1.002
17	84763	30.071055546054	1.002
17	84891	30.121055546054	1.002
17	85150	30.171055546054	1.002
17	85278	30.221055546054	1.002
17	85521	30.271055546054	1.002
17	85649	30.321055546054	1.002
17	85897	30.371055546054	1.002
17	86025	30.421055546054	1.002
17	86300	30.471055546054	1.002
17	86428	30.521055546054	1.002
17	86676	30.571055546054	1.002
17	86804	30.621055546054	1.002
17	87063	30.671055546054	1.002
17	87191	30.721055546054	1.002
17	87450	30.771055546054	1.002
17	87578	30.821055546054	1.002
17	87837	30.871055546054	1.002
17	87965	30.921055546054	1.002
17	88224	30.971055546054	1.002
17	88352	31.021055546054	1.002
17	88595	31.071055546054	1.002
17	88723	31.121055546054	1.002
17	88998	31.171055546054	1.002
17	89126	31.221055546054	1.002
17	89385	31.271055546054	1.002
17	89513	31.321055546054	1.002
17	89756	31.371055546054	1.002
17	89884	31.421055546054	1.002
17	90132	31.471055546054	1.002
17	90260	31.521055546054	1.002
17	90519	31.571055546054	1.002
17	90647	31.621055546054	1.002
17	90906	31.671055546054	1.002
17	91034	31.721055546054	1.002
17	91293	31.771055546054	1.002
17	91421	31.821055546054	1.002
17	91658	31.871055546054	1.002
17	91786	31.921055546054	1.002
17	92045	31.971055546054	1.002
17	92173	32.021055546054	1.002
17	92432	32.071055546054	1.002
17	92560	32.121055546054	1.002
17	92819	32.171055546054	1.002
17	92947	32.221055546054	1.002
17	93206	32.271055546054	1.002
17	93334	32.321055546054	1.002
17	93593	32.371055546054	1.002
17	93721	32.421055546054	1.002
17	93958	32.471055546054	1.002
17	94086	32.521055546054	1.002
17	94323	32.571055546054	1.002
17	94451	32.621055546054	1.002
17	94694	32.671055546054	1.002
17	94822	32.721055546054	1.002
17	95070	32.771055546054	1.002
17	95198	32.821055546054	1.002
17	95446	32.871055546054	1.002
17	95574	32.921055546054	1.002
17	95817	32.971055546054	1.002
17	95945	33.021055546054	1.002
17	96204	33.071055546054	1.002
17	96332	33.121055546054	1.002
17	96580	33.171055546054	1.002
17	96708	33.221055546054	1.002
17	96967	33.271055546054	1.002
17	97095	33.321055546054	1.002
17	97343	33.371055546054	1.002
17	97471	33.421055546054	1.002
17	97746	33.471055546054	1.002
17	97874	33.521055546054	1.002
17	98149	33.571055546054	1.002
17	98277	33.621055546054	1.002
17	98536	33.671055546054	1.002
17	98664	33.721055546054	1.002
17	98939	33.771055546054	1.002
17	99067	33.821055546054	1.002
17	99342	33.871055546054	1.002
17	99470	33.921055546054	1.002
17	99729	33.971055546054	1.002
17	99857	34.021055546054	1.002
17	100105	34.071055546054	1.002
17	100233	34.121055546054	1.002
17	100492	34.171055546054	1.002
17	100620	34.221055546054	1.002
17	100879	34.271055546054	1.002
17	101007	34.321055546054	1.002
17	101266	34.371055546054	1.002
17	101394	34.421055546054	1.002
17	101653	34.471055546054	1.002
17	101781	34.521055546054	1.002
17	102040	34.571055546054	1.002
17	102168	34.621055546054	1.002
17	102411	34.671055546054	1.002
17	102539	34.721055546054	1.002
17	102798	34.771055546054	1.002
17	102926	34.821055546054	1.002
17	103169	34.871055546054	1.002
17	103297	34.921055546054	1.002
17	103572	34.971055546054	1.002
17	103700	35.021055546054	1.002
17	103959	35.071055546054	1.002
17	104087	35.121055546054	1.002
17	104346	35.171055546054	1.002
17	104474	35.221055546054	1.002
17	104733	35.271055546054	1.002
17	104861	35.321055546054	1.002
17	105104	35.371055546054	1.002
17	105232	35.421055546054	1.002
17	105475	35.471055546054	1.002
17	105603	35.521055546054	1.002
17	105862	35.571055546054	1.002
17	105990	35.621055546054	1.002
17	106238	35.671055546054	1.002
17	106366	35.721055546054	1.002
17	106625	35.771055546054	1.002
17	106753	35.821055546054	1.002
17	107028	35.871055546054	1.002
17	107156	35.921055546054	1.002
17	107431	35.971055546054	1.002
17	107559	36.021055546054	1.002
17	107807	36.071055546054	1.002
17	107935	36.121055546054	1.002
17	108194	36.171055546054	1.002
17	108322	36.221055546054	1.002
17	108581	36.271055546054	1.002
17	108709	36.321055546054	1.002
17	108952	36.371055546054	1.002
17	109080	36.421055546054	1.002
17	109355	36.471055546054	1.002
17	109483	36.521055546054	1.002
17	109742	36.571055546054	1.002
17	109870	36.621055546054	1.002
17	110129	36.671055546054	1.002
17	110257	36.721055546054	1.002
17	110516	36.771055546054	1.002
17	110644	36.821055546054	1.002
17	110892	36.871055546054	1.002
17	111020	36.921055546054	1.002
17	111279	36.971055546054	1.002
17	111407	37.021055546054	1.002
17	111666	37.071055546054	1.002
17	111794	37.121055546054	1.002
17	112037	37.171055546054	1.002
17	112165	37.221055546054	1.002
17	112413	37.271055546054	1.002
17	112541	37.321055546054	1.002
17	112800	37.371055546054	1.002
17	112928	37.421055546054	1.002
17	113187	37.471055546054	1.002
17	113315	37.521055546054	1.002
17	113563	37.571055546054	1.002
17	113691	37.621055546054	1.002
17	113934	37.671055546054	1.002
17	114062	37.721055546054	1.002
17	114310	37.771055546054	1.002
17	114438	37.821055546054	1.002
17	114697	37.871055546054	1.002
17	114825	37.921055546054	1.002
17	115084	37.971055546054	1.002
17	115212	38.021055546054	1.002
17	115487	38.071055546054	1.002
17	115615	38.121055546054	1.002
17	115874	38.171055546054	1.002
17	116002	38.221055546054	1.002
17	116245	38.271055546054	1.002
17	116373	38.321055546054	1.002
17	116616	38.371055546054	1.002
17	116744	38.421055546054	1.002
17	117019	38.471055546054	1.002
17	117147	38.521055546054	1.002
17	117406	38.571055546054	1.002
17	117534	38.621055546054	1.002
17	117793	38.671055546054	1.002
17	117921	38.721055546054	1.002
17	118169	38.771055546054	1.002
17	118297	38.821055546054	1.002
17	118556	38.871055546054	1.002
17	118684	38.921055546054	1.002
17	118927	38.971055546054	1.002
17	119055	39.021055546054	1.002
17	119298	39.071055546054	1.002
17	119426	39.121055546054	1.002
17	119685	39.171055546054	1.002
17	119813	39.221055546054	1.002
17	120072	39.271055546054	1.002
17	120200	39.321055546054	1.002
17	120459	39.371055546054	1.002
17	120587	39.421055546054	1.002
17	120846	39.471055546054	1.002
17	120974	39.521055546054	1.002
17	121233	39.571055546054	1.002
17	121361	39.621055546054	1.002
17	121598	39.671055546054	1.002
17	121726	39.721055546054	1.002
17	121985	39.771055546054	1.002
17	122113	39.821055546054	1.002
17	122356	39.871055546054	1.002
17	122484	39.921055546054	1.002
17	122743	39.971055546054	1.002
17	122871	40.021055546054	1.002
17	123146	40.071055546054	1.002
17	123274	40.121055546054	1.002
17	123522	40.171055546054	1.002
17	123650	40.221055546054	1.002
17	123925	40.271055546054	1.002
17	124053	40.321055546054	1.002
17	124290	40.371055546054	1.002
17	124418	40.421055546054	1.002
17	124677	40.471055546054	1.002
17	124805	40.521055546054	1.002
17	125048	40.571055546054	1.002
17	125176	40.621055546054	1.002
17	125451	40.671055546054	1.002
17	125579	40.721055546054	1.002
17	125838	40.771055546054	1.002
17	125966	40.821055546054	1.002
17	126225	40.871055546054	1.002
17	126353	40.921055546054	1.002
17	126601	40.971055546054	1.002
17	126729	41.021055546054	1.002
17	126988	41.071055546054	1.002
17	127116	41.121055546054	1.002
17	127359	41.171055546054	1.002
17	127487	41.221055546054	1.002
17	127762	41.271055546054	1.002
17	127890	41.321055546054	1.002
17	128149	41.371055546054	1.002
17	128277	41.421055546054	1.002
17	128536	41.471055546054	1.002
17	128664	41.521055546054	1.002
17	128923	41.571055546054	1.002
17	129051	41.621055546054	1.002
17	129294	41.671055546054	1.002
17	129422	41.721055546054	1.002
17	129681	41.771055546054	1.002
17	129809	41.821055546054	1.002
17	130068	41.871055546054	1.002
17	130196	41.921055546054	1.002
17	130455	41.971055546054	1.002
17	130583	42.021055546054	1.002
17	130842	42.071055546054	1.002
17	130970	42.121055546054	1.002
17	131229	42.171055546054	1.002
17	131357	42.221055546054	1.002
17	131616	42.271055546054	1.002
17	131744	42.321055546054	1.002
17	132019	42.371055546054	1.002
17	132147	42.421055546054	1.002
17	132406	42.471055546054	1.002
17	132534	42.521055546054	1.002
17	132793	42.571055546054	1.002
17	132921	42.621055546054	1.002
17	133164	42.671055546054	1.002
17	133292	42.721055546054	1.002
17	133535	42.771055546054	1.002
17	133663	42.821055546054	1.002
17	133906	42.871055546054	1.002
17	134034	42.921055546054	1.002
17	134293	42.971055546054	1.002
17	134421	43.021055546054	1.002
17	134680	43.071055546054	1.002
17	134808	43.121055546054	1.002
17	135083	43.171055546054	1.002
17	135211	43.221055546054	1.002
17	135459	43.271055546054	1.002
17	135587	43.321055546054	1.002
17	135835	43.371055546054	1.002
17	135963	43.421055546054	1.002
17	136211	43.471055546054	1.002
17	136339	43.521055546054	1.002
17	136598	43.571055546054	1.002
17	136726	43.621055546054	1.002
17	136985	43.671055546054	1.002
17	137113	43.721055546054	1.002
17	137361	43.771055546054	1.002
17	137489	43.821055546054	1.002
17	137748	43.871055546054	1.002
17	137876	43.921055546054	1.002
17	138124	43.971055546054	1.002
17	138252	44.021055546054	1.002
17	138527	44.071055546054	1.002
17	138655	44.121055546054	1.002
17	138914	44.171055546054	1.002
17	139042	44.221055546054	1.002
17	139301	44.271055546054	1.002
17	139429	44.321055546054	1.002
17	139688	44.371055546054	1.002
17	139816	44.421055546054	1.002
17	140053	44.471055546054	1.002
17	140181	44.521055546054	1.002
17	140440	44.571055546054	1.002
17	140568	44.621055546054	1.002
17	140827	44.671055546054	1.002
17	140955	44.721055546054	1.002
17	141214	44.771055546054	1.002
17	141342	44.821055546054	1.002
17	141617	44.871055546054	1.002
17	141745	44.921055546054	1.002
17	142004	44.971055546054	1.002
17	142132	45.021055546054	1.002
17	142407	45.071055546054	1.002
17	142535	45.121055546054	1.002
17	142783	45.171055546054	1.002
17	142911	45.221055546054	1.002
17	143170	45.271055546054	1.002
17	143298	45.321055546054	1.002
17	143557	45.371055546054	1.002
17	143685	45.421055546054	1.002
17	143928	45.471055546054	1.002
17	144056	45.521055546054	1.002
17	144315	45.571055546054	1.002
17	144443	45.621055546054	1.002
17	144702	45.671055546054	1.002
17	144830	45.721055546054	1.002
17	145105	45.771055546054	1.002
17	145233	45.821055546054	1.002
17	145492	45.871055546054	1.002
17	145620	45.921055546054	1.002
17	145863	45.971055546054	1.002
17	145991	46.021055546054	1.002
17	146239	46.071055546054	1.002
17	146367	46.121055546054	1.002
17	146626	46.171055546054	1.002
17	146754	46.221055546054	1.002
17	147013	46.271055546054	1.002
17	147141	46.321055546054	1.002
17	147384	46.371055546054	1.002
17	147512	46.421055546054	1.002
17	147771	46.471055546054	1.002
17	147899	46.521055546054	1.002
17	148147	46.571055546054	1.002
17	148275	46.621055546054	1.002
17	148518	46.671055546054	1.002
17	148646	46.721055546054	1.002
17	148894	46.771055546054	1.002
17	149022	46.821055546054	1.002
17	149281	46.871055546054	1.002
17	149409	46.921055546054	1.002
17	149657	46.971055546054	1.002
17	149785	47.021055546054	1.002
17	150044	47.071055546054	1.002
17	150172	47.121055546054	1.002
17	150431	47.171055546054	1.002
17	150559	47.221055546054	1.002
17	150807	47.271055546054	1.002
17	150935	47.321055546054	1.002
17	151178	47.371055546054	1.002
17	151306	47.421055546054	1.002
17	151554	47.471055546054	1.002
17	151682	47.521055546054	1.002
17	151941	47.571055546054	1.002
17	152069	47.621055546054	1.002
17	152328	47.671055546054	1.002
17	152456	47.721055546054	1.002
17	152699	47.771055546054	1.002
17	152827	47.821055546054	1.002
17	153075	47.871055546054	1.002
17	153203	47.921055546054	1.002
17	153446	47.971055546054	1.002
17	153574	48.021055546054	1.002
17	153833	48.071055546054	1.002
17	153961	48.121055546054	1.002
17	154220	48.171055546054	1.002
17	154348	48.221055546054	1.002
17	154623	48.271055546054	1.002
17	154751	48.321055546054	1.002
17	154999	48.371055546054	1.002
17	155127	48.421055546054	1.002
17	155386	48.471055546054	1.002
17	155514	48.521055546054	1.002
17	155773	48.571055546054	1.002
17	155901	48.621055546054	1.002
17	156149	48.671055546054	1.002
17	156277	48.721055546054	1.002
17	156536	48.771055546054	1.002
17	156664	48.821055546054	1.002
17	156923	48.871055546054	1.002
17	157051	48.921055546054	1.002
17	157326	48.971055546054	1.002
17	157454	49.021055546054	1.002
17	157697	49.071055546054	1.002
17	157825	49.121055546054	1.002
17	158084	49.171055546054	1.002
17	158212	49.221055546054	1.002
17	158471	49.271055546054	1.002
17	158599	49.321055546054	1.002
17	158858	49.371055546054	1.002
17	158986	49.421055546054	1.002
17	159229	49.471055546054	1.002
17	159357	49.521055546054	1.002
17	159616	49.571055546054	1.002
17	159744	49.621055546054	1.002
17	159992	49.671055546054	1.002
17	160120	49.721055546054	1.002
17	160379	49.771055546054	1.002
17	160507	49.821055546054	1.002
17	160766	49.871055546054	1.002
17	160894	49.921055546054	1.002
17	161142	49.971055546054	1.002
17	161270	50.021055546054	1.002
17	161529	50.071055546054	1.002
17	161657	50.121055546054	1.002
17	161900	50.171055546054	1.002
17	162028	50.221055546054	1.002
17	162287	50.271055546054	1.002
17	162415	50.321055546054	1.002
17	162674	50.371055546054	1.002
17	162802	50.421055546054	1.002
17	163061	50.471055546054	1.002
17	163189	50.521055546054	1.002
17	163432	50.571055546054	1.002
17	163560	50.621055546054	1.002
17	163808	50.671055546054	1.002
17	163936	50.721055546054	1.002
17	164195	50.771055546054	1.002
17	164323	50.821055546054	1.002
17	164582	50.871055546054	1.002
17	164710	50.921055546054	1.002
17	164958	50.971055546054	1.002
17	165086	51.021055546054	1.002
17	165345	51.071055546054	1.002
17	165473	51.121055546054	1.002
17	165732	51.171055546054	1.002
17	165860	51.221055546054	1.002
17	166119	51.271055546054	1.002
17	166247	51.321055546054	1.002
17	166490	51.371055546054	1.002
17	166618	51.421055546054	1.002
17	166877	51.471055546054	1.002
17	167005	51.521055546054	1.002
17	167248	51.571055546054	1.002
17	167376	51.621055546054	1.002
17	167635	51.671055546054	1.002
17	167763	51.721055546054	1.002
17	168006	51.771055546054	1.002
17	168134	51.821055546054	1.002
17	168382	51.871055546054	1.002
17	168510	51.921055546054	1.002
17	168753	51.971055546054	1.002
17	168881	52.021055546054	1.002
17	169140	52.071055546054	1.002
17	169268	52.121055546054	1.002
17	169527	52.171055546054	1.002
17	169655	52.221055546054	1.002
17	169914	52.271055546054	1.002
17	170042	52.321055546054	1.002
17	170301	52.371055546054	1.002
17	170429	52.421055546054	1.002
17	170688	52.471055546054	1.002
17	170816	52.521055546054	1.002
17	171064	52.571055546054	1.002
17	171192	52.621055546054	1.002
17	171451	52.671055546054	1.002
17	171579	52.721055546054	1.002
17	171838	52.771055546054	1.002
17	171966	52.821055546054	1.002
17	172225	52.871055546054	1.002
17	172353	52.921055546054	1.002
17	172612	52.971055546054	1.002
17	172740	53.021055546054	1.002
17	172983	53.071055546054	1.002
17	173111	53.121055546054	1.002
17	173359	53.171055546054	1.002
17	173487	53.221055546054	1.002
17	173735	53.271055546054	1.002
17	173863	53.321055546054	1.002
17	174122	53.371055546054	1.002
17	174250	53.421055546054	1.002
17	174509	53.471055546054	1.002
17	174637	53.521055546054	1.002
17	174885	53.571055546054	1.002
17	175013	53.621055546054	1.002
17	175256	53.671055546054	1.002
17	175384	53.721055546054	1.002
17	175643	53.771055546054	1.002
17	175771	53.821055546054	1.002
17	176030	53.871055546054	1.002
17	176158	53.921055546054	1.002
17	176401	53.971055546054	1.002
17	176529	54.021055546054	1.002
17	176788	54.071055546054	1.002
17	176916	54.121055546054	1.002
17	177153	54.171055546054	1.002
17	177281	54.221055546054	1.002
17	177540	54.271055546054	1.002
17	177668	54.321055546054	1.002
17	177927	54.371055546054	1.002
17	178055	54.421055546054	1.002
17	178314	54.471055546054	1.002
17	178442	54.521055546054	1.002
17	178701	54.571055546054	1.002
17	178829	54.621055546054	1.002
17	179072	54.671055546054	1.002
17	179200	54.721055546054	1.002
17	179443	54.771055546054	1.002
17	179571	54.821055546054	1.002
17	179846	54.871055546054	1.002
17	179974	54.921055546054	1.002
17	180233	54.971055546054	1.002
17	180361	55.021055546054	1.002
17	180620	55.071055546054	1.002
17	180748	55.121055546054	1.002
17	180996	55.171055546054	1.002
17	181124	55.221055546054	1.002
17	181367	55.271055546054	1.002
17	181495	55.321055546054	1.002
17	181754	55.371055546054	1.002
17	181882	55.421055546054	1.002
17	182157	55.471055546054	1.002
17	182285	55.521055546054	1.002
17	182544	55.571055546054	1.002
17	182672	55.621055546054	1.002
17	182931	55.671055546054	1.002
17	183059	55.721055546054	1.002
17	183318	55.771055546054	1.002
17	183446	55.821055546054	1.002
17	183705	55.871055546054	1.002
17	183833	55.921055546054	1.002
17	184108	55.971055546054	1.002
17	184236	56.021055546054	1.002
17	184495	56.071055546054	1.002
17	184623	56.121055546054	1.002
17	184860	56.171055546054	1.002
17	184988	56.221055546054	1.002
17	185231	56.271055546054	1.002
17	185359	56.321055546054	1.002
17	185618	56.371055546054	1.002
17	185746	56.421055546054	1.002
17	185994	56.471055546054	1.002
17	186122	56.521055546054	1.002
17	186365	56.571055546054	1.002
17	186493	56.621055546054	1.002
17	186768	56.671055546054	1.002
17	186896	56.721055546054	1.002
17	187144	56.771055546054	1.002
17	187272	56.821055546054	1.002
17	187515	56.871055546054	1.002
17	187643	56.921055546054	1.002
17	187918	56.971055546054	1.002
17	188046	57.021055546054	1.002
17	188305	57.071055546054	1.002
17	188433	57.121055546054	1.002
17	188676	57.171055546054	1.002
17	188804	57.221055546054	1.002
17	189063	57.271055546054	1.002
17	189191	57.321055546054	1.002
17	189450	57.371055546054	1.002
17	189578	57.421055546054	1.002
17	189837	57.471055546054	1.002
17	189965	57.521055546054	1.002
17	190208	57.571055546054	1.002
17	190336	57.621055546054	1.002
17	190595	57.671055546054	1.002
17	190723	57.721055546054	1.002
17	190982	57.771055546054	1.002
17	191110	57.821055546054	1.002
17	191369	57.871055546054	1.002
17	191497	57.921055546054	1.002
17	191745	57.971055546054	1.002
17	191873	58.021055546054	1.002
17	192132	58.071055546054	1.002
17	192260	58.121055546054	1.002
17	192535	58.171055546054	1.002
17	192663	58.221055546054	1.002
17	192922	58.271055546054	1.002
17	193050	58.321055546054	1.002
17	193309	58.371055546054	1.002
17	193437	58.421055546054	1.002
17	193685	58.471055546054	1.002
17	193813	58.521055546054	1.002
17	194072	58.571055546054	1.002
17	194200	58.621055546054	1.002
17	194448	58.671055546054	1.002
17	194576	58.721055546054	1.002
17	194835	58.771055546054	1.002
17	194963	58.821055546054	1.002
17	195238	58.871055546054	1.002
17	195366	58.921055546054	1.002
17	195625	58.971055546054	1.002
17	195753	59.021055546054	1.002
17	196012	59.071055546054	1.002
17	196140	59.121055546054	1.002
17	196383	59.171055546054	1.002
17	196511	59.221055546054	1.002
17	196754	59.271055546054	1.002
17	196882	59.321055546054	1.002
17	197157	59.371055546054	1.002
17	197285	59.421055546054	1.002
17	197528	59.471055546054	1.002
17	197656	59.521055546054	1.002
17	197904	59.571055546054	1.002
17	198032	59.621055546054	1.002
17	198280	59.671055546054	1.002
17	198408	59.721055546054	1.002
17	198651	59.771055546054	1.002
17	198779	59.821055546054	1.002
17	199038	59.871055546054	1.002
17	199166	59.921055546054	1.002
17	199425	59.971055546054	1.002
17	199553	60.021055546054	1.002
17	199796	60.071055546054	1.002
17	199924	60.121055546054	1.002
17	200199	60.171055546054	1.002
17	200327	60.221055546054	1.002
17	200575	60.271055546054	1.002
17	200703	60.321055546054	1.002
17	200962	60.371055546054	1.002
17	201090	60.421055546054	1.002
17	201333	60.471055546054	1.002
17	201461	60.521055546054	1.002
17	201709	60.571055546054	1.002
17	201837	60.621055546054	1.002
17	202096	60.671055546054	1.002
17	202224	60.721055546054	1.002
17	202472	60.771055546054	1.002
17	202600	60.821055546054	1.002
17	202843	60.871055546054	1.002
17	202971	60.921055546054	1.002
17	203230	60.971055546054	1.002
17	203358	61.021055546054	1.002
17	203617	61.071055546054	1.002
17	203745	61.121055546054	1.002
17	203988	61.171055546054	1.002
17	204116	61.221055546054	1.002
17	204364	61.271055546054	1.002
17	204492	61.321055546054	1.002
17	204740	61.371055546054	1.002
17	204868	61.421055546054	1.002
17	205127	61.471055546054	1.002
17	205255	61.521055546054	1.002
17	205514	61.571055546054	1.002
16	12	0.271055546054	1
16	30	0.321055546054	2
16	47	0.371055546054	3
16	65	0.421055546054	4
16	82	0.471055546054	5
16	100	0.521055546054	6
16	117	0.571055546054	7
16	135	0.621055546054	8
16	152	0.671055546054	9
16	170	0.721055546054	10
16	187	0.771055546054	11
16	205	0.821055546054	12
16	222	0.871055546054	13
16	240	0.921055546054	14
16	257	0.971055546054	15
16	275	1.021055546054	16
16	292	1.071055546054	17
16	310	1.121055546054	18
16	327	1.171055546054	19
16	345	1.221055546054	20
16	362	1.271055546054	21
16	380	1.321055546054	22
16	397	1.371055546054	23
16	415	1.421055546054	24
16	432	1.471055546054	25
16	450	1.521055546054	26
16	467	1.571055546054	27
16	485	1.621055546054	28
16	502	1.671055546054	29
16	520	1.721055546054	30
16	537	1.771055546054	31
16	555	1.821055546054	32
16	572	1.871055546054	33
16	590	1.921055546054	34
16	607	1.971055546054	35
16	625	2.021055546054	36
16	642	2.071055546054	37
16	660	2.121055546054	38
16	677	2.171055546054	39
16	695	2.221055546054	40
16	712	2.271055546054	41
16	730	2.321055546054	42
16	747	2.371055546054	43
16	765	2.421055546054	44
16	782	2.471055546054	45
16	800	2.521055546054	46
16	817	2.571055546054	47
16	835	2.621055546054	48
16	852	2.671055546054	49
16	870	2.721055546054	50
16	887	2.771055546054	51
16	905	2.821055546054	52
16	922	2.871055546054	53
16	940	2.921055546054	54
16	957	2.971055546054	55
16	975	3.021055546054	56
16	992	3.071055546054	57
16	1010	3.121055546054	58
16	1034	3.171055546054	59
16	1059	3.221055546054	60
16	1083	3.271055546054	61
16	1108	3.321055546054	62
16	1132	3.371055546054	63
16	1157	3.421055546054	64
16	1181	3.471055546054	65
16	1206	3.521055546054	66
16	1230	3.571055546054	67
16	1276	3.621055546054	69
16	1321	3.671055546054	71
16	1367	3.721055546054	73
16	1412	3.771055546054	75
16	1458	3.821055546054	77
16	1503	3.871055546054	79
16	1549	3.921055546054	81
16	1594	3.971055546054	83
16	1640	4.021055546054	85
16	1685	4.071055546054	87
16	1731	4.121055546054	89
16	1776	4.171055546054	91
16	1822	4.221055546054	93
16	1867	4.271055546054	95
16	1913	4.321055546054	97
16	1958	4.371055546054	99
16	2004	4.421055546054	101
16	2049	4.471055546054	103
16	2095	4.521055546054	105
16	2140	4.571055546054	107
16	2186	4.621055546054	109
16	2231	4.671055546054	111
16	2277	4.721055546054	113
16	2322	4.771055546054	115
16	2368	4.821055546054	117
16	2413	4.871055546054	119
16	2459	4.921055546054	121
16	2504	4.971055546054	123
16	2550	5.021055546054	125
16	2595	5.071055546054	127
16	2641	5.121055546054	129
16	2686	5.171055546054	131
16	2732	5.221055546054	133
16	2777	5.271055546054	135
16	2823	5.321055546054	137
16	2868	5.371055546054	139
16	2914	5.421055546054	141
16	2959	5.471055546054	143
16	3005	5.521055546054	145
16	3050	5.571055546054	147
16	3096	5.621055546054	149
16	3141	5.671055546054	151
16	3187	5.721055546054	153
16	3232	5.771055546054	155
16	3278	5.821055546054	157
16	3323	5.871055546054	159
16	3369	5.921055546054	161
16	3414	5.971055546054	163
16	3460	6.021055546054	165
16	3505	6.071055546054	167
16	3551	6.121055546054	169
16	3636	6.171055546054	172
16	3697	6.221055546054	175
16	3797	6.271055546054	178
16	3858	6.321055546054	181
16	3968	6.371055546054	184
16	4029	6.421055546054	187
16	4139	6.471055546054	190
16	4200	6.521055546054	193
16	4310	6.571055546054	196
16	4371	6.621055546054	199
16	4481	6.671055546054	202
16	4542	6.721055546054	205
16	4652	6.771055546054	208
16	4713	6.821055546054	211
16	4823	6.871055546054	214
16	4884	6.921055546054	217
16	4994	6.971055546054	220
16	5055	7.021055546054	223
16	5165	7.071055546054	226
16	5226	7.121055546054	229
16	5336	7.171055546054	232
16	5397	7.221055546054	235
16	5497	7.271055546054	238
16	5558	7.321055546054	241
16	5668	7.371055546054	244
16	5729	7.421055546054	247
16	5839	7.471055546054	250
16	5900	7.521055546054	253
16	6000	7.571055546054	256
16	6061	7.621055546054	259
16	6171	7.671055546054	262
16	6232	7.721055546054	265
16	6342	7.771055546054	268
16	6403	7.821055546054	271
16	6503	7.871055546054	274
16	6564	7.921055546054	277
16	6674	7.971055546054	280
16	6735	8.021055546054	283
16	6835	8.071055546054	286
16	6896	8.121055546054	289
16	7006	8.171055546054	292
16	7067	8.221055546054	295
16	7167	8.271055546054	298
16	7228	8.321055546054	301
16	7328	8.371055546054	304
16	7389	8.421055546054	307
16	7499	8.471055546054	310
16	7560	8.521055546054	313
16	7660	8.571055546054	316
16	7721	8.621055546054	319
16	7831	8.671055546054	322
16	7892	8.721055546054	325
16	8002	8.771055546054	328
16	8063	8.821055546054	331
16	8173	8.871055546054	334
16	8234	8.921055546054	337
16	8344	8.971055546054	340
16	8405	9.021055546054	343
16	8515	9.071055546054	346
16	8576	9.121055546054	349
16	8711	9.171055546054	352
16	8785	9.221055546054	355
16	8920	9.271055546054	358
16	8994	9.321055546054	361
16	9129	9.371055546054	364
16	9236	9.421055546054	368
16	9391	9.471055546054	372
16	9498	9.521055546054	376
16	9654	9.571055546054	380
16	9761	9.621055546054	384
16	9916	9.671055546054	388
16	10023	9.721055546054	392
16	10178	9.771055546054	396
16	10285	9.821055546054	400
16	10453	9.871055546054	404
16	10560	9.921055546054	408
16	10715	9.971055546054	412
16	10822	10.021055546054	416
16	10977	10.071055546054	420
16	11084	10.121055546054	424
16	11239	10.171055546054	428
16	11346	10.221055546054	432
16	11501	10.271055546054	436
16	11608	10.321055546054	440
16	11763	10.371055546054	444
16	11870	10.421055546054	448
16	12025	10.471055546054	452
16	12132	10.521055546054	456
16	12287	10.571055546054	460
16	12394	10.621055546054	464
16	12549	10.671055546054	468
16	12656	10.721055546054	472
16	12811	10.771055546054	476
16	12918	10.821055546054	480
16	13086	10.871055546054	484
16	13193	10.921055546054	488
16	13348	10.971055546054	492
16	13455	11.021055546054	496
16	13610	11.071055546054	500
16	13717	11.121055546054	504
16	13885	11.171055546054	508
16	13992	11.221055546054	512
16	14147	11.271055546054	516
16	14254	11.321055546054	520
16	14409	11.371055546054	524
16	14516	11.421055546054	528
16	14684	11.471055546054	532
16	14791	11.521055546054	536
16	14946	11.571055546054	540
16	15053	11.621055546054	544
16	15208	11.671055546054	548
16	15315	11.721055546054	552
16	15470	11.771055546054	556
16	15577	11.821055546054	560
16	15745	11.871055546054	564
16	15852	11.921055546054	568
16	16020	11.971055546054	572
16	16127	12.021055546054	576
16	16295	12.071055546054	580
16	16402	12.121055546054	584
16	16585	12.171055546054	588
16	16711	12.221055546054	592
16	16894	12.271055546054	596
16	17020	12.321055546054	600
16	17203	12.371055546054	604
16	17329	12.421055546054	608
16	17528	12.471055546054	612
16	17654	12.521055546054	616
16	17837	12.571055546054	620
16	17963	12.621055546054	624
16	18146	12.671055546054	628
16	18272	12.721055546054	632
16	18455	12.771055546054	636
16	18581	12.821055546054	640
16	18764	12.871055546054	644
16	18890	12.921055546054	648
16	19073	12.971055546054	652
16	19199	13.021055546054	656
16	19437	13.071055546054	661
16	19565	13.121055546054	666
16	19824	13.171055546054	671
16	19952	13.221055546054	676
16	20200	13.271055546054	681
16	20328	13.321055546054	686
16	20587	13.371055546054	691
16	20715	13.421055546054	696
16	20974	13.471055546054	701
16	21102	13.521055546054	706
16	21350	13.571055546054	711
16	21478	13.621055546054	716
16	21737	13.671055546054	721
16	21865	13.721055546054	726
16	22125	13.771055546054	731
16	22253	13.821055546054	736
16	22512	13.871055546054	741
16	22640	13.921055546054	746
16	22888	13.971055546054	751
16	23016	14.021055546054	756
16	23291	14.071055546054	761
16	23419	14.121055546054	766
16	23678	14.171055546054	771
16	23806	14.221055546054	776
16	24054	14.271055546054	781
16	24182	14.321055546054	786
16	24441	14.371055546054	791
16	24569	14.421055546054	796
16	24812	14.471055546054	801
16	24940	14.521055546054	806
16	25199	14.571055546054	811
16	25327	14.621055546054	816
16	25575	14.671055546054	821
16	25703	14.721055546054	826
16	25962	14.771055546054	831
16	26090	14.821055546054	836
16	26349	14.871055546054	841
16	26477	14.921055546054	846
16	26736	14.971055546054	851
16	26864	15.021055546054	856
16	27123	15.071055546054	861
16	27251	15.121055546054	866
16	27510	15.171055546054	871
16	27638	15.221055546054	876
16	27897	15.271055546054	881
16	28025	15.321055546054	886
16	28300	15.371055546054	891
16	28428	15.421055546054	896
16	28676	15.471055546054	901
16	28804	15.521055546054	906
16	29063	15.571055546054	911
16	29191	15.621055546054	916
16	29450	15.671055546054	921
16	29578	15.721055546054	926
16	29837	15.771055546054	931
16	29965	15.821055546054	936
16	30224	15.871055546054	941
16	30352	15.921055546054	946
16	30600	15.971055546054	951
16	30728	16.021055546054	956
16	30987	16.071055546054	961
16	31115	16.121055546054	966
16	31374	16.171055546054	971
16	31502	16.221055546054	976
16	31761	16.271055546054	981
16	31889	16.321055546054	986
16	32132	16.371055546054	991
16	32260	16.421055546054	996
16	32519	16.471055546054	1001
16	32647	16.521055546054	1006
16	32906	16.571055546054	1011
16	33034	16.621055546054	1016
16	33271	16.671055546054	1021
16	33399	16.721055546054	1026
16	33658	16.771055546054	1031
16	33786	16.821055546054	1036
16	34045	16.871055546054	1041
16	34173	16.921055546054	1046
16	34421	16.971055546054	1051
16	34549	17.021055546054	1056
16	34786	17.071055546054	1061
16	34914	17.121055546054	1066
16	35173	17.171055546054	1071
16	35301	17.221055546054	1076
16	35560	17.271055546054	1081
16	35688	17.321055546054	1086
16	35936	17.371055546054	1091
16	36064	17.421055546054	1096
16	36307	17.471055546054	1101
16	36435	17.521055546054	1106
16	36678	17.571055546054	1111
16	36806	17.621055546054	1116
16	37081	17.671055546054	1121
16	37209	17.721055546054	1126
16	37484	17.771055546054	1131
16	37612	17.821055546054	1136
16	37871	17.871055546054	1141
16	37999	17.921055546054	1146
16	38247	17.971055546054	1151
16	38375	18.021055546054	1156
16	38650	18.071055546054	1161
16	38778	18.121055546054	1166
16	39037	18.171055546054	1171
16	39165	18.221055546054	1176
16	39408	18.271055546054	1181
16	39536	18.321055546054	1186
16	39795	18.371055546054	1191
16	39923	18.421055546054	1196
16	40182	18.471055546054	1201
16	40310	18.521055546054	1206
16	40569	18.571055546054	1211
16	40697	18.621055546054	1216
16	40956	18.671055546054	1221
16	41084	18.721055546054	1226
16	41321	18.771055546054	1231
16	41449	18.821055546054	1236
16	41708	18.871055546054	1241
16	41836	18.921055546054	1246
16	42084	18.971055546054	1251
16	42212	19.021055546054	1256
16	42487	19.071055546054	1261
16	42615	19.121055546054	1266
16	42874	19.171055546054	1271
16	43002	19.221055546054	1276
16	43261	19.271055546054	1281
16	43389	19.321055546054	1286
16	43648	19.371055546054	1291
16	43776	19.421055546054	1296
16	44035	19.471055546054	1301
16	44163	19.521055546054	1306
16	44422	19.571055546054	1311
16	44550	19.621055546054	1316
16	44825	19.671055546054	1321
16	44953	19.721055546054	1326
16	45212	19.771055546054	1331
16	45340	19.821055546054	1336
16	45599	19.871055546054	1341
16	45727	19.921055546054	1346
16	45970	19.971055546054	1351
16	46098	20.021055546054	1356
16	46346	20.071055546054	1361
16	46474	20.121055546054	1366
16	46722	20.171055546054	1371
16	46850	20.221055546054	1376
16	47109	20.271055546054	1381
16	47237	20.321055546054	1386
16	47485	20.371055546054	1391
16	47613	20.421055546054	1396
16	47872	20.471055546054	1401
16	48000	20.521055546054	1406
16	48248	20.571055546054	1411
16	48376	20.621055546054	1416
16	48635	20.671055546054	1421
16	48763	20.721055546054	1426
16	49011	20.771055546054	1431
16	49139	20.821055546054	1436
16	49387	20.871055546054	1441
16	49515	20.921055546054	1446
16	49758	20.971055546054	1451
16	49886	21.021055546054	1456
16	50145	21.071055546054	1461
16	50273	21.121055546054	1466
16	50516	21.171055546054	1471
16	50644	21.221055546054	1476
16	50887	21.271055546054	1481
16	51015	21.321055546054	1486
16	51290	21.371055546054	1491
16	51418	21.421055546054	1496
16	51677	21.471055546054	1501
16	51805	21.521055546054	1506
16	52064	21.571055546054	1511
16	52192	21.621055546054	1516
16	52451	21.671055546054	1521
16	52579	21.721055546054	1526
16	52854	21.771055546054	1531
16	52982	21.821055546054	1536
16	53241	21.871055546054	1541
16	53369	21.921055546054	1546
16	53628	21.971055546054	1551
16	53756	22.021055546054	1556
16	53999	22.071055546054	1561
16	54127	22.121055546054	1566
16	54386	22.171055546054	1571
16	54514	22.221055546054	1576
16	54751	22.271055546054	1581
16	54879	22.321055546054	1586
16	55122	22.371055546054	1591
16	55250	22.421055546054	1596
16	55493	22.471055546054	1601
16	55621	22.521055546054	1606
16	55869	22.571055546054	1611
16	55997	22.621055546054	1616
16	56245	22.671055546054	1621
16	56373	22.721055546054	1626
16	56648	22.771055546054	1631
16	56776	22.821055546054	1636
16	57035	22.871055546054	1641
16	57163	22.921055546054	1646
16	57422	22.971055546054	1651
16	57550	23.021055546054	1656
16	57809	23.071055546054	1661
16	57937	23.121055546054	1666
16	58196	23.171055546054	1671
16	58324	23.221055546054	1676
16	58567	23.271055546054	1681
16	58695	23.321055546054	1686
16	58954	23.371055546054	1691
16	59082	23.421055546054	1696
16	59341	23.471055546054	1701
16	59469	23.521055546054	1706
16	59744	23.571055546054	1711
16	59872	23.621055546054	1716
16	60115	23.671055546054	1721
16	60243	23.721055546054	1726
16	60502	23.771055546054	1731
16	60630	23.821055546054	1736
16	60889	23.871055546054	1741
16	61017	23.921055546054	1746
16	61276	23.971055546054	1751
16	61404	24.021055546054	1756
16	61652	24.071055546054	1761
16	61780	24.121055546054	1766
16	62028	24.171055546054	1771
16	62156	24.221055546054	1776
16	62415	24.271055546054	1781
16	62543	24.321055546054	1786
16	62791	24.371055546054	1791
16	62919	24.421055546054	1796
16	63178	24.471055546054	1801
16	63306	24.521055546054	1806
16	63565	24.571055546054	1811
16	63693	24.621055546054	1816
16	63968	24.671055546054	1821
16	64096	24.721055546054	1826
16	64355	24.771055546054	1831
16	64483	24.821055546054	1836
16	64742	24.871055546054	1841
16	64870	24.921055546054	1846
16	65113	24.971055546054	1851
16	65241	25.021055546054	1856
16	65500	25.071055546054	1861
16	65628	25.121055546054	1866
16	65871	25.171055546054	1871
16	65999	25.221055546054	1876
16	66258	25.271055546054	1881
16	66386	25.321055546054	1886
16	66645	25.371055546054	1891
16	66773	25.421055546054	1896
16	67032	25.471055546054	1901
16	67160	25.521055546054	1906
16	67419	25.571055546054	1911
16	67547	25.621055546054	1916
16	67806	25.671055546054	1921
16	67934	25.721055546054	1926
16	68177	25.771055546054	1931
16	68305	25.821055546054	1936
16	68564	25.871055546054	1941
16	68692	25.921055546054	1946
16	68951	25.971055546054	1951
16	69079	26.021055546054	1956
16	69322	26.071055546054	1961
16	69450	26.121055546054	1966
16	69709	26.171055546054	1971
16	69837	26.221055546054	1976
16	70080	26.271055546054	1981
16	70208	26.321055546054	1986
16	70467	26.371055546054	1991
16	70595	26.421055546054	1996
16	70838	26.471055546054	2001
16	70966	26.521055546054	2006
16	71225	26.571055546054	2011
16	71353	26.621055546054	2016
16	71628	26.671055546054	2021
16	71756	26.721055546054	2026
16	72015	26.771055546054	2031
16	72143	26.821055546054	2036
16	72391	26.871055546054	2041
16	72519	26.921055546054	2046
16	72767	26.971055546054	2051
16	72895	27.021055546054	2056
16	73154	27.071055546054	2061
16	73282	27.121055546054	2066
16	73541	27.171055546054	2071
16	73669	27.221055546054	2076
16	73928	27.271055546054	2081
16	74056	27.321055546054	2086
16	74315	27.371055546054	2091
16	74443	27.421055546054	2096
16	74718	27.471055546054	2101
16	74846	27.521055546054	2106
16	75094	27.571055546054	2111
16	75222	27.621055546054	2116
16	75481	27.671055546054	2121
16	75609	27.721055546054	2126
16	75868	27.771055546054	2131
16	75996	27.821055546054	2136
16	76271	27.871055546054	2141
16	76399	27.921055546054	2146
16	76658	27.971055546054	2151
16	76786	28.021055546054	2156
16	77061	28.071055546054	2161
16	77189	28.121055546054	2166
16	77437	28.171055546054	2171
16	77565	28.221055546054	2176
16	77840	28.271055546054	2181
16	77968	28.321055546054	2186
16	78227	28.371055546054	2191
16	78355	28.421055546054	2196
16	78614	28.471055546054	2201
16	78742	28.521055546054	2206
16	79001	28.571055546054	2211
16	79129	28.621055546054	2216
16	79388	28.671055546054	2221
16	79516	28.721055546054	2226
16	79791	28.771055546054	2231
16	79919	28.821055546054	2236
16	80167	28.871055546054	2241
16	80295	28.921055546054	2246
16	80554	28.971055546054	2251
16	80682	29.021055546054	2256
16	80941	29.071055546054	2261
16	81069	29.121055546054	2266
16	81312	29.171055546054	2271
16	81440	29.221055546054	2276
16	81699	29.271055546054	2281
16	81827	29.321055546054	2286
16	82070	29.371055546054	2291
16	82198	29.421055546054	2296
16	82457	29.471055546054	2301
16	82585	29.521055546054	2306
16	82844	29.571055546054	2311
16	82972	29.621055546054	2316
16	83215	29.671055546054	2321
16	83343	29.721055546054	2326
16	83602	29.771055546054	2331
16	83730	29.821055546054	2336
16	83989	29.871055546054	2341
16	84117	29.921055546054	2346
16	84360	29.971055546054	2351
16	84488	30.021055546054	2356
16	84763	30.071055546054	2361
16	84891	30.121055546054	2366
16	85150	30.171055546054	2371
16	85278	30.221055546054	2376
16	85521	30.271055546054	2381
16	85649	30.321055546054	2386
16	85897	30.371055546054	2391
16	86025	30.421055546054	2396
16	86300	30.471055546054	2401
16	86428	30.521055546054	2406
16	86676	30.571055546054	2411
16	86804	30.621055546054	2416
16	87063	30.671055546054	2421
16	87191	30.721055546054	2426
16	87450	30.771055546054	2431
16	87578	30.821055546054	2436
16	87837	30.871055546054	2441
16	87965	30.921055546054	2446
16	88224	30.971055546054	2451
16	88352	31.021055546054	2456
16	88595	31.071055546054	2461
16	88723	31.121055546054	2466
16	88998	31.171055546054	2471
16	89126	31.221055546054	2476
16	89385	31.271055546054	2481
16	89513	31.321055546054	2486
16	89756	31.371055546054	2491
16	89884	31.421055546054	2496
16	90132	31.471055546054	2501
16	90260	31.521055546054	2506
16	90519	31.571055546054	2511
16	90647	31.621055546054	2516
16	90906	31.671055546054	2521
16	91034	31.721055546054	2526
16	91293	31.771055546054	2531
16	91421	31.821055546054	2536
16	91658	31.871055546054	2541
16	91786	31.921055546054	2546
16	92045	31.971055546054	2551
16	92173	32.021055546054	2556
16	92432	32.071055546054	2561
16	92560	32.121055546054	2566
16	92819	32.171055546054	2571
16	92947	32.221055546054	2576
16	93206	32.271055546054	2581
16	93334	32.321055546054	2586
16	93593	32.371055546054	2591
16	93721	32.421055546054	2596
16	93958	32.471055546054	2601
16	94086	32.521055546054	2606
16	94323	32.571055546054	2611
16	94451	32.621055546054	2616
16	94694	32.671055546054	2621
16	94822	32.721055546054	2626
16	95070	32.771055546054	2631
16	95198	32.821055546054	2636
16	95446	32.871055546054	2641
16	95574	32.921055546054	2646
16	95817	32.971055546054	2651
16	95945	33.021055546054	2656
16	96204	33.071055546054	2661
16	96332	33.121055546054	2666
16	96580	33.171055546054	2671
16	96708	33.221055546054	2676
16	96967	33.271055546054	2681
16	97095	33.321055546054	2686
16	97343	33.371055546054	2691
16	97471	33.421055546054	2696
16	97746	33.471055546054	2701
16	97874	33.521055546054	2706
16	98149	33.571055546054	2711
16	98277	33.621055546054	2716
16	98536	33.671055546054	2721
16	98664	33.721055546054	2726
16	98939	33.771055546054	2731
16	99067	33.821055546054	2736
16	99342	33.871055546054	2741
16	99470	33.921055546054	2746
16	99729	33.971055546054	2751
16	99857	34.021055546054	2756
16	100105	34.071055546054	2761
16	100233	34.121055546054	2766
16	100492	34.171055546054	2771
16	100620	34.221055546054	2776
16	100879	34.271055546054	2781
16	101007	34.321055546054	2786
16	101266	34.371055546054	2791
16	101394	34.421055546054	2796
16	101653	34.471055546054	2801
16	101781	34.521055546054	2806
16	102040	34.571055546054	2811
16	102168	34.621055546054	2816
16	102411	34.671055546054	2821
16	102539	34.721055546054	2826
16	102798	34.771055546054	2831
16	102926	34.821055546054	2836
16	103169	34.871055546054	2841
16	103297	34.921055546054	2846
16	103572	34.971055546054	2851
16	103700	35.021055546054	2856
16	103959	35.071055546054	2861
16	104087	35.121055546054	2866
16	104346	35.171055546054	2871
16	104474	35.221055546054	2876
16	104733	35.271055546054	2881
16	104861	35.321055546054	2886
16	105104	35.371055546054	2891
16	105232	35.421055546054	2896
16	105475	35.471055546054	2901
16	105603	35.521055546054	2906
16	105862	35.571055546054	2911
16	105990	35.621055546054	2916
16	106238	35.671055546054	2921
16	106366	35.721055546054	2926
16	106625	35.771055546054	2931
16	106753	35.821055546054	2936
16	107028	35.871055546054	2941
16	107156	35.921055546054	2946
16	107431	35.971055546054	2951
16	107559	36.021055546054	2956
16	107807	36.071055546054	2961
16	107935	36.121055546054	2966
16	108194	36.171055546054	2971
16	108322	36.221055546054	2976
16	108581	36.271055546054	2981
16	108709	36.321055546054	2986
16	108952	36.371055546054	2991
16	109080	36.421055546054	2996
16	109355	36.471055546054	3001
16	109483	36.521055546054	3006
16	109742	36.571055546054	3011
16	109870	36.621055546054	3016
16	110129	36.671055546054	3021
16	110257	36.721055546054	3026
16	110516	36.771055546054	3031
16	110644	36.821055546054	3036
16	110892	36.871055546054	3041
16	111020	36.921055546054	3046
16	111279	36.971055546054	3051
16	111407	37.021055546054	3056
16	111666	37.071055546054	3061
16	111794	37.121055546054	3066
16	112037	37.171055546054	3071
16	112165	37.221055546054	3076
16	112413	37.271055546054	3081
16	112541	37.321055546054	3086
16	112800	37.371055546054	3091
16	112928	37.421055546054	3096
16	113187	37.471055546054	3101
16	113315	37.521055546054	3106
16	113563	37.571055546054	3111
16	113691	37.621055546054	3116
16	113934	37.671055546054	3121
16	114062	37.721055546054	3126
16	114310	37.771055546054	3131
16	114438	37.821055546054	3136
16	114697	37.871055546054	3141
16	114825	37.921055546054	3146
16	115084	37.971055546054	3151
16	115212	38.021055546054	3156
16	115487	38.071055546054	3161
16	115615	38.121055546054	3166
16	115874	38.171055546054	3171
16	116002	38.221055546054	3176
16	116245	38.271055546054	3181
16	116373	38.321055546054	3186
16	116616	38.371055546054	3191
16	116744	38.421055546054	3196
16	117019	38.471055546054	3201
16	117147	38.521055546054	3206
16	117406	38.571055546054	3211
16	117534	38.621055546054	3216
16	117793	38.671055546054	3221
16	117921	38.721055546054	3226
16	118169	38.771055546054	3231
16	118297	38.821055546054	3236
16	118556	38.871055546054	3241
16	118684	38.921055546054	3246
16	118927	38.971055546054	3251
16	119055	39.021055546054	3256
16	119298	39.071055546054	3261
16	119426	39.121055546054	3266
16	119685	39.171055546054	3271
16	119813	39.221055546054	3276
16	120072	39.271055546054	3281
16	120200	39.321055546054	3286
16	120459	39.371055546054	3291
16	120587	39.421055546054	3296
16	120846	39.471055546054	3301
16	120974	39.521055546054	3306
16	121233	39.571055546054	3311
16	121361	39.621055546054	3316
16	121598	39.671055546054	3321
16	121726	39.721055546054	3326
16	121985	39.771055546054	3331
16	122113	39.821055546054	3336
16	122356	39.871055546054	3341
16	122484	39.921055546054	3346
16	122743	39.971055546054	3351
16	122871	40.021055546054	3356
16	123146	40.071055546054	3361
16	123274	40.121055546054	3366
16	123522	40.171055546054	3371
16	123650	40.221055546054	3376
16	123925	40.271055546054	3381
16	124053	40.321055546054	3386
16	124290	40.371055546054	3391
16	124418	40.421055546054	3396
16	124677	40.471055546054	3401
16	124805	40.521055546054	3406
16	125048	40.571055546054	3411
16	125176	40.621055546054	3416
16	125451	40.671055546054	3421
16	125579	40.721055546054	3426
16	125838	40.771055546054	3431
16	125966	40.821055546054	3436
16	126225	40.871055546054	3441
16	126353	40.921055546054	3446
16	126601	40.971055546054	3451
16	126729	41.021055546054	3456
16	126988	41.071055546054	3461
16	127116	41.121055546054	3466
16	127359	41.171055546054	3471
16	127487	41.221055546054	3476
16	127762	41.271055546054	3481
16	127890	41.321055546054	3486
16	128149	41.371055546054	3491
16	128277	41.421055546054	3496
16	128536	41.471055546054	3501
16	128664	41.521055546054	3506
16	128923	41.571055546054	3511
16	129051	41.621055546054	3516
16	129294	41.671055546054	3521
16	129422	41.721055546054	3526
16	129681	41.771055546054	3531
16	129809	41.821055546054	3536
16	130068	41.871055546054	3541
16	130196	41.921055546054	3546
16	130455	41.971055546054	3551
16	130583	42.021055546054	3556
16	130842	42.071055546054	3561
16	130970	42.121055546054	3566
16	131229	42.171055546054	3571
16	131357	42.221055546054	3576
16	131616	42.271055546054	3581
16	131744	42.321055546054	3586
16	132019	42.371055546054	3591
16	132147	42.421055546054	3596
16	132406	42.471055546054	3601
16	132534	42.521055546054	3606
16	132793	42.571055546054	3611
16	132921	42.621055546054	3616
16	133164	42.671055546054	3621
16	133292	42.721055546054	3626
16	133535	42.771055546054	3631
16	133663	42.821055546054	3636
16	133906	42.871055546054	3641
16	134034	42.921055546054	3646
16	134293	42.971055546054	3651
16	134421	43.021055546054	3656
16	134680	43.071055546054	3661
16	134808	43.121055546054	3666
16	135083	43.171055546054	3671
16	135211	43.221055546054	3676
16	135459	43.271055546054	3681
16	135587	43.321055546054	3686
16	135835	43.371055546054	3691
16	135963	43.421055546054	3696
16	136211	43.471055546054	3701
16	136339	43.521055546054	3706
16	136598	43.571055546054	3711
16	136726	43.621055546054	3716
16	136985	43.671055546054	3721
16	137113	43.721055546054	3726
16	137361	43.771055546054	3731
16	137489	43.821055546054	3736
16	137748	43.871055546054	3741
16	137876	43.921055546054	3746
16	138124	43.971055546054	3751
16	138252	44.021055546054	3756
16	138527	44.071055546054	3761
16	138655	44.121055546054	3766
16	138914	44.171055546054	3771
16	139042	44.221055546054	3776
16	139301	44.271055546054	3781
16	139429	44.321055546054	3786
16	139688	44.371055546054	3791
16	139816	44.421055546054	3796
16	140053	44.471055546054	3801
16	140181	44.521055546054	3806
16	140440	44.571055546054	3811
16	140568	44.621055546054	3816
16	140827	44.671055546054	3821
16	140955	44.721055546054	3826
16	141214	44.771055546054	3831
16	141342	44.821055546054	3836
16	141617	44.871055546054	3841
16	141745	44.921055546054	3846
16	142004	44.971055546054	3851
16	142132	45.021055546054	3856
16	142407	45.071055546054	3861
16	142535	45.121055546054	3866
16	142783	45.171055546054	3871
16	142911	45.221055546054	3876
16	143170	45.271055546054	3881
16	143298	45.321055546054	3886
16	143557	45.371055546054	3891
16	143685	45.421055546054	3896
16	143928	45.471055546054	3901
16	144056	45.521055546054	3906
16	144315	45.571055546054	3911
16	144443	45.621055546054	3916
16	144702	45.671055546054	3921
16	144830	45.721055546054	3926
16	145105	45.771055546054	3931
16	145233	45.821055546054	3936
16	145492	45.871055546054	3941
16	145620	45.921055546054	3946
16	145863	45.971055546054	3951
16	145991	46.021055546054	3956
16	146239	46.071055546054	3961
16	146367	46.121055546054	3966
16	146626	46.171055546054	3971
16	146754	46.221055546054	3976
16	147013	46.271055546054	3981
16	147141	46.321055546054	3986
16	147384	46.371055546054	3991
16	147512	46.421055546054	3996
16	147771	46.471055546054	4001
16	147899	46.521055546054	4006
16	148147	46.571055546054	4011
16	148275	46.621055546054	4016
16	148518	46.671055546054	4021
16	148646	46.721055546054	4026
16	148894	46.771055546054	4031
16	149022	46.821055546054	4036
16	149281	46.871055546054	4041
16	149409	46.921055546054	4046
16	149657	46.971055546054	4051
16	149785	47.021055546054	4056
16	150044	47.071055546054	4061
16	150172	47.121055546054	4066
16	150431	47.171055546054	4071
16	150559	47.221055546054	4076
16	150807	47.271055546054	4081
16	150935	47.321055546054	4086
16	151178	47.371055546054	4091
16	151306	47.421055546054	4096
16	151554	47.471055546054	4101
16	151682	47.521055546054	4106
16	151941	47.571055546054	4111
16	152069	47.621055546054	4116
16	152328	47.671055546054	4121
16	152456	47.721055546054	4126
16	152699	47.771055546054	4131
16	152827	47.821055546054	4136
16	153075	47.871055546054	4141
16	153203	47.921055546054	4146
16	153446	47.971055546054	4151
16	153574	48.021055546054	4156
16	153833	48.071055546054	4161
16	153961	48.121055546054	4166
16	154220	48.171055546054	4171
16	154348	48.221055546054	4176
16	154623	48.271055546054	4181
16	154751	48.321055546054	4186
16	154999	48.371055546054	4191
16	155127	48.421055546054	4196
16	155386	48.471055546054	4201
16	155514	48.521055546054	4206
16	155773	48.571055546054	4211
16	155901	48.621055546054	4216
16	156149	48.671055546054	4221
16	156277	48.721055546054	4226
16	156536	48.771055546054	4231
16	156664	48.821055546054	4236
16	156923	48.871055546054	4241
16	157051	48.921055546054	4246
16	157326	48.971055546054	4251
16	157454	49.021055546054	4256
16	157697	49.071055546054	4261
16	157825	49.121055546054	4266
16	158084	49.171055546054	4271
16	158212	49.221055546054	4276
16	158471	49.271055546054	4281
16	158599	49.321055546054	4286
16	158858	49.371055546054	4291
16	158986	49.421055546054	4296
16	159229	49.471055546054	4301
16	159357	49.521055546054	4306
16	159616	49.571055546054	4311
16	159744	49.621055546054	4316
16	159992	49.671055546054	4321
16	160120	49.721055546054	4326
16	160379	49.771055546054	4331
16	160507	49.821055546054	4336
16	160766	49.871055546054	4341
16	160894	49.921055546054	4346
16	161142	49.971055546054	4351
16	161270	50.021055546054	4356
16	161529	50.071055546054	4361
16	161657	50.121055546054	4366
16	161900	50.171055546054	4371
16	162028	50.221055546054	4376
16	162287	50.271055546054	4381
16	162415	50.321055546054	4386
16	162674	50.371055546054	4391
16	162802	50.421055546054	4396
16	163061	50.471055546054	4401
16	163189	50.521055546054	4406
16	163432	50.571055546054	4411
16	163560	50.621055546054	4416
16	163808	50.671055546054	4421
16	163936	50.721055546054	4426
16	164195	50.771055546054	4431
16	164323	50.821055546054	4436
16	164582	50.871055546054	4441
16	164710	50.921055546054	4446
16	164958	50.971055546054	4451
16	165086	51.021055546054	4456
16	165345	51.071055546054	4461
16	165473	51.121055546054	4466
16	165732	51.171055546054	4471
16	165860	51.221055546054	4476
16	166119	51.271055546054	4481
16	166247	51.321055546054	4486
16	166490	51.371055546054	4491
16	166618	51.421055546054	4496
16	166877	51.471055546054	4501
16	167005	51.521055546054	4506
16	167248	51.571055546054	4511
16	167376	51.621055546054	4516
16	167635	51.671055546054	4521
16	167763	51.721055546054	4526
16	168006	51.771055546054	4531
16	168134	51.821055546054	4536
16	168382	51.871055546054	4541
16	168510	51.921055546054	4546
16	168753	51.971055546054	4551
16	168881	52.021055546054	4556
16	169140	52.071055546054	4561
16	169268	52.121055546054	4566
16	169527	52.171055546054	4571
16	169655	52.221055546054	4576
16	169914	52.271055546054	4581
16	170042	52.321055546054	4586
16	170301	52.371055546054	4591
16	170429	52.421055546054	4596
16	170688	52.471055546054	4601
16	170816	52.521055546054	4606
16	171064	52.571055546054	4611
16	171192	52.621055546054	4616
16	171451	52.671055546054	4621
16	171579	52.721055546054	4626
16	171838	52.771055546054	4631
16	171966	52.821055546054	4636
16	172225	52.871055546054	4641
16	172353	52.921055546054	4646
16	172612	52.971055546054	4651
16	172740	53.021055546054	4656
16	172983	53.071055546054	4661
16	173111	53.121055546054	4666
16	173359	53.171055546054	4671
16	173487	53.221055546054	4676
16	173735	53.271055546054	4681
16	173863	53.321055546054	4686
16	174122	53.371055546054	4691
16	174250	53.421055546054	4696
16	174509	53.471055546054	4701
16	174637	53.521055546054	4706
16	174885	53.571055546054	4711
16	175013	53.621055546054	4716
16	175256	53.671055546054	4721
16	175384	53.721055546054	4726
16	175643	53.771055546054	4731
16	175771	53.821055546054	4736
16	176030	53.871055546054	4741
16	176158	53.921055546054	4746
16	176401	53.971055546054	4751
16	176529	54.021055546054	4756
16	176788	54.071055546054	4761
16	176916	54.121055546054	4766
16	177153	54.171055546054	4771
16	177281	54.221055546054	4776
16	177540	54.271055546054	4781
16	177668	54.321055546054	4786
16	177927	54.371055546054	4791
16	178055	54.421055546054	4796
16	178314	54.471055546054	4801
16	178442	54.521055546054	4806
16	178701	54.571055546054	4811
16	178829	54.621055546054	4816
16	179072	54.671055546054	4821
16	179200	54.721055546054	4826
16	179443	54.771055546054	4831
16	179571	54.821055546054	4836
16	179846	54.871055546054	4841
16	179974	54.921055546054	4846
16	180233	54.971055546054	4851
16	180361	55.021055546054	4856
16	180620	55.071055546054	4861
16	180748	55.121055546054	4866
16	180996	55.171055546054	4871
16	181124	55.221055546054	4876
16	181367	55.271055546054	4881
16	181495	55.321055546054	4886
16	181754	55.371055546054	4891
16	181882	55.421055546054	4896
16	182157	55.471055546054	4901
16	182285	55.521055546054	4906
16	182544	55.571055546054	4911
16	182672	55.621055546054	4916
16	182931	55.671055546054	4921
16	183059	55.721055546054	4926
16	183318	55.771055546054	4931
16	183446	55.821055546054	4936
16	183705	55.871055546054	4941
16	183833	55.921055546054	4946
16	184108	55.971055546054	4951
16	184236	56.021055546054	4956
16	184495	56.071055546054	4961
16	184623	56.121055546054	4966
16	184860	56.171055546054	4971
16	184988	56.221055546054	4976
16	185231	56.271055546054	4981
16	185359	56.321055546054	4986
16	185618	56.371055546054	4991
16	185746	56.421055546054	4996
16	185994	56.471055546054	5001
16	186122	56.521055546054	5006
16	186365	56.571055546054	5011
16	186493	56.621055546054	5016
16	186768	56.671055546054	5021
16	186896	56.721055546054	5026
16	187144	56.771055546054	5031
16	187272	56.821055546054	5036
16	187515	56.871055546054	5041
16	187643	56.921055546054	5046
16	187918	56.971055546054	5051
16	188046	57.021055546054	5056
16	188305	57.071055546054	5061
16	188433	57.121055546054	5066
16	188676	57.171055546054	5071
16	188804	57.221055546054	5076
16	189063	57.271055546054	5081
16	189191	57.321055546054	5086
16	189450	57.371055546054	5091
16	189578	57.421055546054	5096
16	189837	57.471055546054	5101
16	189965	57.521055546054	5106
16	190208	57.571055546054	5111
16	190336	57.621055546054	5116
16	190595	57.671055546054	5121
16	190723	57.721055546054	5126
16	190982	57.771055546054	5131
16	191110	57.821055546054	5136
16	191369	57.871055546054	5141
16	191497	57.921055546054	5146
16	191745	57.971055546054	5151
16	191873	58.021055546054	5156
16	192132	58.071055546054	5161
16	192260	58.121055546054	5166
16	192535	58.171055546054	5171
16	192663	58.221055546054	5176
16	192922	58.271055546054	5181
16	193050	58.321055546054	5186
16	193309	58.371055546054	5191
16	193437	58.421055546054	5196
16	193685	58.471055546054	5201
16	193813	58.521055546054	5206
16	194072	58.571055546054	5211
16	194200	58.621055546054	5216
16	194448	58.671055546054	5221
16	194576	58.721055546054	5226
16	194835	58.771055546054	5231
16	194963	58.821055546054	5236
16	195238	58.871055546054	5241
16	195366	58.921055546054	5246
16	195625	58.971055546054	5251
16	195753	59.021055546054	5256
16	196012	59.071055546054	5261
16	196140	59.121055546054	5266
16	196383	59.171055546054	5271
16	196511	59.221055546054	5276
16	196754	59.271055546054	5281
16	196882	59.321055546054	5286
16	197157	59.371055546054	5291
16	197285	59.421055546054	5296
16	197528	59.471055546054	5301
16	197656	59.521055546054	5306
16	197904	59.571055546054	5311
16	198032	59.621055546054	5316
16	198280	59.671055546054	5321
16	198408	59.721055546054	5326
16	198651	59.771055546054	5331
16	198779	59.821055546054	5336
16	199038	59.871055546054	5341
16	199166	59.921055546054	5346
16	199425	59.971055546054	5351
16	199553	60.021055546054	5356
16	199796	60.071055546054	5361
[...]
14	137120	43.75014973911	0.001
14	137480	43.80014973911	0.002
14	137496	43.85014973911	0.001
14	137867	43.90014973911	0.002
14	137883	43.95014973911	0.001
14	138243	44.00014973911	0.002
14	138259	44.05014973911	0.001
14	138646	44.10014973911	0.002
14	138662	44.15014973911	0.001
14	139033	44.20014973911	0.002
14	139049	44.25014973911	0.001
14	139420	44.30014973911	0.002
14	139436	44.35014973911	0.001
14	139807	44.40014973911	0.002
14	139823	44.45014973911	0.001
14	140172	44.50014973911	0.002
14	140188	44.55014973911	0.001
14	140559	44.60014973911	0.002
14	140575	44.65014973911	0.001
14	140946	44.70014973911	0.002
14	140962	44.75014973911	0.001
14	141333	44.80014973911	0.002
14	141349	44.85014973911	0.001
14	141736	44.90014973911	0.002
14	141752	44.95014973911	0.001
14	142123	45.00014973911	0.002
14	142139	45.05014973911	0.001
14	142526	45.10014973911	0.002
14	142542	45.15014973911	0.001
14	142902	45.20014973911	0.002
14	142918	45.25014973911	0.001
14	143289	45.30014973911	0.002
14	143305	45.35014973911	0.001
14	143676	45.40014973911	0.002
14	143692	45.45014973911	0.001
14	144047	45.50014973911	0.002
14	144063	45.55014973911	0.001
14	144434	45.60014973911	0.002
14	144450	45.65014973911	0.001
14	144821	45.70014973911	0.002
14	144837	45.75014973911	0.001
14	145224	45.80014973911	0.002
14	145240	45.85014973911	0.001
14	145611	45.90014973911	0.002
14	145627	45.95014973911	0.001
14	145982	46.00014973911	0.002
14	145998	46.05014973911	0.001
14	146358	46.10014973911	0.002
14	146374	46.15014973911	0.001
14	146745	46.20014973911	0.002
14	146761	46.25014973911	0.001
14	147132	46.30014973911	0.002
14	147148	46.35014973911	0.001
14	147503	46.40014973911	0.002
14	147519	46.45014973911	0.001
14	147890	46.50014973911	0.002
14	147906	46.55014973911	0.001
14	148266	46.60014973911	0.002
14	148282	46.65014973911	0.001
14	148637	46.70014973911	0.002
14	148653	46.75014973911	0.001
14	149013	46.80014973911	0.002
14	149029	46.85014973911	0.001
14	149400	46.90014973911	0.002
14	149416	46.95014973911	0.001
14	149776	47.00014973911	0.002
14	149792	47.05014973911	0.001
14	150163	47.10014973911	0.002
14	150179	47.15014973911	0.001
14	150550	47.20014973911	0.002
14	150566	47.25014973911	0.001
14	150926	47.30014973911	0.002
14	150942	47.35014973911	0.001
14	151297	47.40014973911	0.002
14	151313	47.45014973911	0.001
14	151673	47.50014973911	0.002
14	151689	47.55014973911	0.001
14	152060	47.60014973911	0.002
14	152076	47.65014973911	0.001
14	152447	47.70014973911	0.002
14	152463	47.75014973911	0.001
14	152818	47.80014973911	0.002
14	152834	47.85014973911	0.001
14	153194	47.90014973911	0.002
14	153210	47.95014973911	0.001
14	153565	48.00014973911	0.002
14	153581	48.05014973911	0.001
14	153952	48.10014973911	0.002
14	153968	48.15014973911	0.001
14	154339	48.20014973911	0.002
14	154355	48.25014973911	0.001
14	154742	48.30014973911	0.002
14	154758	48.35014973911	0.001
14	155118	48.40014973911	0.002
14	155134	48.45014973911	0.001
14	155505	48.50014973911	0.002
14	155521	48.55014973911	0.001
14	155892	48.60014973911	0.002
14	155908	48.65014973911	0.001
14	156268	48.70014973911	0.002
14	156284	48.75014973911	0.001
14	156655	48.80014973911	0.002
14	156671	48.85014973911	0.001
14	157042	48.90014973911	0.002
14	157058	48.95014973911	0.001
14	157445	49.00014973911	0.002
14	157461	49.05014973911	0.001
14	157816	49.10014973911	0.002
14	157832	49.15014973911	0.001
14	158203	49.20014973911	0.002
14	158219	49.25014973911	0.001
14	158590	49.30014973911	0.002
14	158606	49.35014973911	0.001
14	158977	49.40014973911	0.002
14	158993	49.45014973911	0.001
14	159348	49.50014973911	0.002
14	159364	49.55014973911	0.001
14	159735	49.60014973911	0.002
14	159751	49.65014973911	0.001
14	160111	49.70014973911	0.002
14	160127	49.75014973911	0.001
14	160498	49.80014973911	0.002
14	160514	49.85014973911	0.001
14	160885	49.90014973911	0.002
14	160901	49.95014973911	0.001
14	161261	50.00014973911	0.002
14	161277	50.05014973911	0.001
14	161648	50.10014973911	0.002
14	161664	50.15014973911	0.001
14	162019	50.20014973911	0.002
14	162035	50.25014973911	0.001
14	162406	50.30014973911	0.002
14	162422	50.35014973911	0.001
14	162793	50.40014973911	0.002
14	162809	50.45014973911	0.001
14	163180	50.50014973911	0.002
14	163196	50.55014973911	0.001
14	163551	50.60014973911	0.002
14	163567	50.65014973911	0.001
14	163927	50.70014973911	0.002
14	163943	50.75014973911	0.001
14	164314	50.80014973911	0.002
14	164330	50.85014973911	0.001
14	164701	50.90014973911	0.002
14	164717	50.95014973911	0.001
14	165077	51.00014973911	0.002
14	165093	51.05014973911	0.001
14	165464	51.10014973911	0.002
14	165480	51.15014973911	0.001
14	165851	51.20014973911	0.002
14	165867	51.25014973911	0.001
14	166238	51.30014973911	0.002
14	166254	51.35014973911	0.001
14	166609	51.40014973911	0.002
14	166625	51.45014973911	0.001
14	166996	51.50014973911	0.002
14	167012	51.55014973911	0.001
14	167367	51.60014973911	0.002
14	167383	51.65014973911	0.001
14	167754	51.70014973911	0.002
14	167770	51.75014973911	0.001
14	168125	51.80014973911	0.002
14	168141	51.85014973911	0.001
14	168501	51.90014973911	0.002
14	168517	51.95014973911	0.001
14	168872	52.00014973911	0.002
14	168888	52.05014973911	0.001
14	169259	52.10014973911	0.002
14	169275	52.15014973911	0.001
14	169646	52.20014973911	0.002
14	169662	52.25014973911	0.001
14	170033	52.30014973911	0.002
14	170049	52.35014973911	0.001
14	170420	52.40014973911	0.002
14	170436	52.45014973911	0.001
14	170807	52.50014973911	0.002
14	170823	52.55014973911	0.001
14	171183	52.60014973911	0.002
14	171199	52.65014973911	0.001
14	171570	52.70014973911	0.002
14	171586	52.75014973911	0.001
14	171957	52.80014973911	0.002
14	171973	52.85014973911	0.001
14	172344	52.90014973911	0.002
14	172360	52.95014973911	0.001
14	172731	53.00014973911	0.002
14	172747	53.05014973911	0.001
14	173102	53.10014973911	0.002
14	173118	53.15014973911	0.001
14	173478	53.20014973911	0.002
14	173494	53.25014973911	0.001
14	173854	53.30014973911	0.002
14	173870	53.35014973911	0.001
14	174241	53.40014973911	0.002
14	174257	53.45014973911	0.001
14	174628	53.50014973911	0.002
14	174644	53.55014973911	0.001
14	175004	53.60014973911	0.002
14	175020	53.65014973911	0.001
14	175375	53.70014973911	0.002
14	175391	53.75014973911	0.001
14	175762	53.80014973911	0.002
14	175778	53.85014973911	0.001
14	176149	53.90014973911	0.002
14	176165	53.95014973911	0.001
14	176520	54.00014973911	0.002
14	176536	54.05014973911	0.001
14	176907	54.10014973911	0.002
14	176923	54.15014973911	0.001
14	177272	54.20014973911	0.002
14	177288	54.25014973911	0.001
14	177659	54.30014973911	0.002
14	177675	54.35014973911	0.001
14	178046	54.40014973911	0.002
14	178062	54.45014973911	0.001
14	178433	54.50014973911	0.002
14	178449	54.55014973911	0.001
14	178820	54.60014973911	0.002
14	178836	54.65014973911	0.001
14	179191	54.70014973911	0.002
14	179207	54.75014973911	0.001
14	179562	54.80014973911	0.002
14	179578	54.85014973911	0.001
14	179965	54.90014973911	0.002
14	179981	54.95014973911	0.001
14	180352	55.00014973911	0.002
14	180368	55.05014973911	0.001
14	180739	55.10014973911	0.002
14	180755	55.15014973911	0.001
14	181115	55.20014973911	0.002
14	181131	55.25014973911	0.001
14	181486	55.30014973911	0.002
14	181502	55.35014973911	0.001
14	181873	55.40014973911	0.002
14	181889	55.45014973911	0.001
14	182276	55.50014973911	0.002
14	182292	55.55014973911	0.001
14	182663	55.60014973911	0.002
14	182679	55.65014973911	0.001
14	183050	55.70014973911	0.002
14	183066	55.75014973911	0.001
14	183437	55.80014973911	0.002
14	183453	55.85014973911	0.001
14	183824	55.90014973911	0.002
14	183840	55.95014973911	0.001
14	184227	56.00014973911	0.002
14	184243	56.05014973911	0.001
14	184614	56.10014973911	0.002
14	184630	56.15014973911	0.001
14	184979	56.20014973911	0.002
14	184995	56.25014973911	0.001
14	185350	56.30014973911	0.002
14	185366	56.35014973911	0.001
14	185737	56.40014973911	0.002
14	185753	56.45014973911	0.001
14	186113	56.50014973911	0.002
14	186129	56.55014973911	0.001
14	186484	56.60014973911	0.002
14	186500	56.65014973911	0.001
14	186887	56.70014973911	0.002
14	186903	56.75014973911	0.001
14	187263	56.80014973911	0.002
14	187279	56.85014973911	0.001
14	187634	56.90014973911	0.002
14	187650	56.95014973911	0.001
14	188037	57.00014973911	0.002
14	188053	57.05014973911	0.001
14	188424	57.10014973911	0.002
14	188440	57.15014973911	0.001
14	188795	57.20014973911	0.002
14	188811	57.25014973911	0.001
14	189182	57.30014973911	0.002
14	189198	57.35014973911	0.001
14	189569	57.40014973911	0.002
14	189585	57.45014973911	0.001
14	189956	57.50014973911	0.002
14	189972	57.55014973911	0.001
14	190327	57.60014973911	0.002
14	190343	57.65014973911	0.001
14	190714	57.70014973911	0.002
14	190730	57.75014973911	0.001
14	191101	57.80014973911	0.002
14	191117	57.85014973911	0.001
14	191488	57.90014973911	0.002
14	191504	57.95014973911	0.001
14	191864	58.00014973911	0.002
14	191880	58.05014973911	0.001
14	192251	58.10014973911	0.002
14	192267	58.15014973911	0.001
14	192654	58.20014973911	0.002
14	192670	58.25014973911	0.001
14	193041	58.30014973911	0.002
14	193057	58.35014973911	0.001
14	193428	58.40014973911	0.002
14	193444	58.45014973911	0.001
14	193804	58.50014973911	0.002
14	193820	58.55014973911	0.001
14	194191	58.60014973911	0.002
14	194207	58.65014973911	0.001
14	194567	58.70014973911	0.002
14	194583	58.75014973911	0.001
14	194954	58.80014973911	0.002
14	194970	58.85014973911	0.001
14	195357	58.90014973911	0.002
14	195373	58.95014973911	0.001
14	195744	59.00014973911	0.002
14	195760	59.05014973911	0.001
14	196131	59.10014973911	0.002
14	196147	59.15014973911	0.001
14	196502	59.20014973911	0.002
14	196518	59.25014973911	0.001
14	196873	59.30014973911	0.002
14	196889	59.35014973911	0.001
14	197276	59.40014973911	0.002
14	197292	59.45014973911	0.001
14	197647	59.50014973911	0.002
14	197663	59.55014973911	0.001
14	198023	59.60014973911	0.002
14	198039	59.65014973911	0.001
14	198399	59.70014973911	0.002
14	198415	59.75014973911	0.001
14	198770	59.80014973911	0.002
14	198786	59.85014973911	0.001
14	199157	59.90014973911	0.002
14	199173	59.95014973911	0.001
14	199544	60.00014973911	0.002
14	199560	60.05014973911	0.001
14	199915	60.10014973911	0.002
14	199931	60.15014973911	0.001
14	200318	60.20014973911	0.002
14	200334	60.25014973911	0.001
14	200694	60.30014973911	0.002
14	200710	60.35014973911	0.001
14	201081	60.40014973911	0.002
14	201097	60.45014973911	0.001
14	201452	60.50014973911	0.002
14	201468	60.55014973911	0.001
14	201828	60.60014973911	0.002
14	201844	60.65014973911	0.001
14	202215	60.70014973911	0.002
14	202231	60.75014973911	0.001
14	202591	60.80014973911	0.002
14	202607	60.85014973911	0.001
14	202962	60.90014973911	0.002
14	202978	60.95014973911	0.001
14	203349	61.00014973911	0.002
14	203365	61.05014973911	0.001
14	203736	61.10014973911	0.002
14	203752	61.15014973911	0.001
14	204107	61.20014973911	0.002
14	204123	61.25014973911	0.001
14	204483	61.30014973911	0.002
14	204499	61.35014973911	0.001
14	204859	61.40014973911	0.002
14	204875	61.45014973911	0.001
14	205246	61.50014973911	0.002
14	205262	61.55014973911	0.001
14	205633	61.60014973911	0.002
14	205646	61.65014973911	0.001
14	205908	61.70014973911	0.002
14	205921	61.75014973911	0.001
14	206183	61.80014973911	0.002
14	206196	61.85014973911	0.001
14	206445	61.90014973911	0.002
14	206458	61.95014973911	0.001
14	206707	62.00014973911	0.002
14	206720	62.05014973911	0.001
14	206982	62.10014973911	0.002
14	206995	62.15014973911	0.001
14	207244	62.20014973911	0.002
14	207257	62.25014973911	0.001
14	207506	62.30014973911	0.002
14	207519	62.35014973911	0.001
14	207768	62.40014973911	0.002
14	207781	62.45014973911	0.001
14	208030	62.50014973911	0.002
14	208043	62.55014973911	0.001
14	208305	62.60014973911	0.002
14	208318	62.65014973911	0.001
14	208567	62.70014973911	0.002
14	208580	62.75014973911	0.001
14	208829	62.80014973911	0.002
14	208842	62.85014973911	0.001
14	209091	62.90014973911	0.002
14	209104	62.95014973911	0.001
14	209353	63.00014973911	0.002
14	209366	63.05014973911	0.001
14	209628	63.10014973911	0.002
14	209641	63.15014973911	0.001
14	209903	63.20014973911	0.002
14	209916	63.25014973911	0.001
14	210165	63.30014973911	0.002
14	210178	63.35014973911	0.001
14	210440	63.40014973911	0.002
14	210453	63.45014973911	0.001
14	210715	63.50014973911	0.002
14	210728	63.55014973911	0.001
14	210977	63.60014973911	0.002
14	210990	63.65014973911	0.001
14	211252	63.70014973911	0.002
14	211265	63.75014973911	0.001
14	211527	63.80014973911	0.002
14	211540	63.85014973911	0.001
14	211802	63.90014973911	0.002
14	211815	63.95014973911	0.001
14	212055	64.00014973911	0.002
14	212068	64.05014973911	0.001
14	212317	64.10014973911	0.002
14	212330	64.15014973911	0.001
14	212579	64.20014973911	0.002
14	212592	64.25014973911	0.001
14	212854	64.30014973911	0.002
14	212867	64.35014973911	0.001
14	213129	64.40014973911	0.002
14	213142	64.45014973911	0.001
14	213391	64.50014973911	0.002
14	213404	64.55014973911	0.001
14	213666	64.60014973911	0.002
14	213676	64.65014973911	0.001
14	213837	64.70014973911	0.002
14	213847	64.75014973911	0.001
14	214008	64.80014973911	0.002
14	214018	64.85014973911	0.001
14	214179	64.90014973911	0.002
14	214189	64.95014973911	0.001
14	214350	65.00014973911	0.002
14	214360	65.05014973911	0.001
14	214521	65.10014973911	0.002
14	214531	65.15014973911	0.001
14	214692	65.20014973911	0.002
14	214702	65.25014973911	0.001
14	214863	65.30014973911	0.002
14	214873	65.35014973911	0.001
14	215024	65.40014973911	0.002
14	215034	65.45014973911	0.001
14	215185	65.50014973911	0.002
14	215195	65.55014973911	0.001
14	215356	65.60014973911	0.002
14	215366	65.65014973911	0.001
14	215527	65.70014973911	0.002
14	215537	65.75014973911	0.001
14	215688	65.80014973911	0.002
14	215698	65.85014973911	0.001
14	215859	65.90014973911	0.002
14	215869	65.95014973911	0.001
14	216020	66.00014973911	0.002
14	216030	66.05014973911	0.001
14	216191	66.10014973911	0.002
14	216201	66.15014973911	0.001
14	216362	66.20014973911	0.002
14	216372	66.25014973911	0.001
14	216533	66.30014973911	0.002
14	216543	66.35014973911	0.001
14	216704	66.40014973911	0.002
14	216714	66.45014973911	0.001
14	216875	66.50014973911	0.002
14	216885	66.55014973911	0.001
14	217046	66.60014973911	0.002
14	217056	66.65014973911	0.001
14	217217	66.70014973911	0.002
14	217227	66.75014973911	0.001
14	217388	66.80014973911	0.002
14	217398	66.85014973911	0.001
14	217549	66.90014973911	0.002
14	217559	66.95014973911	0.001
14	217720	67.00014973911	0.002
14	217730	67.05014973911	0.001
14	217891	67.10014973911	0.002
14	217901	67.15014973911	0.001
14	218062	67.20014973911	0.002
14	218072	67.25014973911	0.001
14	218233	67.30014973911	0.002
14	218243	67.35014973911	0.001
14	218404	67.40014973911	0.002
14	218414	67.45014973911	0.001
14	218565	67.50014973911	0.002
14	218572	67.55014973911	0.001
14	218656	67.60014973911	0.002
14	218663	67.65014973911	0.001
14	218747	67.70014973911	0.002
14	218754	67.75014973911	0.001
14	218838	67.80014973911	0.002
14	218845	67.85014973911	0.001
14	218929	67.90014973911	0.002
14	218936	67.95014973911	0.001
14	219020	68.00014973911	0.002
14	219027	68.05014973911	0.001
14	219111	68.10014973911	0.002
14	219118	68.15014973911	0.001
14	219202	68.20014973911	0.002
14	219209	68.25014973911	0.001
14	219293	68.30014973911	0.002
14	219300	68.35014973911	0.001
14	219384	68.40014973911	0.002
14	219391	68.45014973911	0.001
14	219475	68.50014973911	0.002
14	219482	68.55014973911	0.001
14	219566	68.60014973911	0.002
14	219573	68.65014973911	0.001
14	219657	68.70014973911	0.002
14	219664	68.75014973911	0.001
14	219748	68.80014973911	0.002
14	219755	68.85014973911	0.001
14	219839	68.90014973911	0.002
14	219846	68.95014973911	0.001
14	219930	69.00014973911	0.002
14	219937	69.05014973911	0.001
14	220021	69.10014973911	0.002
14	220028	69.15014973911	0.001
14	220112	69.20014973911	0.002
14	220119	69.25014973911	0.001
14	220203	69.30014973911	0.002
14	220210	69.35014973911	0.001
14	220294	69.40014973911	0.002
14	220301	69.45014973911	0.001
14	220385	69.50014973911	0.002
14	220392	69.55014973911	0.001
14	220476	69.60014973911	0.002
14	220483	69.65014973911	0.001
14	220567	69.70014973911	0.002
14	220574	69.75014973911	0.001
14	220658	69.80014973911	0.002
14	220665	69.85014973911	0.001
14	220749	69.90014973911	0.002
14	220756	69.95014973911	0.001
14	220840	70.00014973911	0.002
14	220847	70.05014973911	0.001
14	220931	70.10014973911	0.002
14	220938	70.15014973911	0.001
14	221022	70.20014973911	0.002
14	221029	70.25014973911	0.001
14	221113	70.30014973911	0.002
14	221120	70.35014973911	0.001
14	221204	70.40014973911	0.002
14	221211	70.45014973911	0.001
14	221295	70.50014973911	0.002
14	221302	70.55014973911	0.001
14	221386	70.60014973911	0.002
14	221393	70.65014973911	0.001
14	221476	70.70014973911	0.002
14	221480	70.75014973911	0.001
14	221511	70.80014973911	0.002
14	221515	70.85014973911	0.001
14	221546	70.90014973911	0.002
14	221550	70.95014973911	0.001
14	221581	71.00014973911	0.002
14	221585	71.05014973911	0.001
14	221616	71.10014973911	0.002
14	221620	71.15014973911	0.001
14	221651	71.20014973911	0.002
14	221655	71.25014973911	0.001
14	221686	71.30014973911	0.002
14	221690	71.35014973911	0.001
14	221721	71.40014973911	0.002
14	221725	71.45014973911	0.001
14	221756	71.50014973911	0.002
14	221760	71.55014973911	0.001
14	221791	71.60014973911	0.002
14	221795	71.65014973911	0.001
14	221826	71.70014973911	0.002
14	221830	71.75014973911	0.001
14	221861	71.80014973911	0.002
14	221865	71.85014973911	0.001
14	221896	71.90014973911	0.002
14	221900	71.95014973911	0.001
14	221931	72.00014973911	0.002
14	221935	72.05014973911	0.001
14	221966	72.10014973911	0.002
14	221970	72.15014973911	0.001
14	222001	72.20014973911	0.002
14	222005	72.25014973911	0.001
14	222036	72.30014973911	0.002
14	222040	72.35014973911	0.001
14	222071	72.40014973911	0.002
14	222075	72.45014973911	0.001
14	222106	72.50014973911	0.002
14	222110	72.55014973911	0.001
14	222141	72.60014973911	0.002
14	222145	72.65014973911	0.001
14	222176	72.70014973911	0.002
14	222180	72.75014973911	0.001
14	222211	72.80014973911	0.002
14	222215	72.85014973911	0.001
14	222246	72.90014973911	0.002
14	222250	72.95014973911	0.001
14	222281	73.00014973911	0.002
14	222285	73.05014973911	0.001
14	222316	73.10014973911	0.002
14	222320	73.15014973911	0.001
14	222351	73.20014973911	0.002
14	222355	73.25014973911	0.001
14	222386	73.30014973911	0.002
14	222390	73.35014973911	0.001
14	222421	73.40014973911	0.002
14	222425	73.45014973911	0.001
14	222456	73.50014973911	0.002
14	222460	73.55014973911	0.001
14	222491	73.60014973911	0.002
14	222495	73.65014973911	0.001
14	222526	73.70014973911	0.002
14	222527	73.75014973911	0.001
14	222528	73.80014973911	0.002
14	222529	73.85014973911	0.001
14	222530	73.90014973911	0.002
14	222531	73.95014973911	0.001
14	222532	74.00014973911	0.002
14	222533	74.05014973911	0.001
14	222534	74.10014973911	0.002
14	222535	74.15014973911	0.001
14	222536	74.20014973911	0.002
14	222537	74.25014973911	0.001
14	222538	74.30014973911	0.002
14	222539	74.35014973911	0.001
14	222540	74.40014973911	0.002
14	222541	74.45014973911	0.001
14	222542	74.50014973911	0.002
14	222543	74.55014973911	0.001
14	222544	74.60014973911	0.002
14	222545	74.65014973911	0.001
14	222546	74.70014973911	0.002
14	222547	74.75014973911	0.001
14	222548	74.80014973911	0.002
14	222549	74.85014973911	0.001
14	222550	74.90014973911	0.002
14	222551	74.95014973911	0.001
14	222552	75.00014973911	0.002
14	222553	75.05014973911	0.001
14	222554	75.10014973911	0.002
14	222555	75.15014973911	0.001
14	222556	75.20014973911	0.002
14	222557	75.25014973911	0.001
14	222558	75.30014973911	0.002
14	222559	75.35014973911	0.001
14	222560	75.40014973911	0.002
14	222561	75.45014973911	0.001
14	222562	75.50014973911	0.002
14	222563	75.55014973911	0.001
14	222564	75.60014973911	0.002
14	222565	75.65014973911	0.001
14	222566	75.70014973911	0.002
14	222567	75.75014973911	0.001
14	222568	75.80014973911	0.002
14	222569	75.85014973911	0.001
14	222570	75.90014973911	0.002
14	222571	75.95014973911	0.001
